
 OpenBabel03081821453D

 12 12  0  0  0  0  0  0  0  0999 V2000
   -0.7614    1.1711   -0.0145 C   0  0  0  0  0  0  0  0  0  0  0  0
   -1.3933   -0.0749   -0.0144 C   0  0  0  0  0  0  0  0  0  0  0  0
    1.3989    0.0757   -0.0116 C   0  0  0  0  0  0  0  0  0  0  0  0
    0.7670   -1.1704   -0.0115 C   0  0  0  0  0  0  0  0  0  0  0  0
    0.6319    1.2410   -0.0131 C   0  0  0  0  0  0  0  0  0  0  0  0
   -0.6263   -1.2402   -0.0128 C   0  0  0  0  0  0  0  0  0  0  0  0
    1.4099    2.7751   -0.0133 Cl  0  0  0  0  0  0  0  0  0  0  0  0
   -1.4043   -2.7744   -0.0127 Cl  0  0  0  0  0  0  0  0  0  0  0  0
   -1.3587    2.0792   -0.0157 H   0  0  0  0  0  0  0  0  0  0  0  0
   -2.4788   -0.1296   -0.0154 H   0  0  0  0  0  0  0  0  0  0  0  0
    2.4844    0.1304   -0.0106 H   0  0  0  0  0  0  0  0  0  0  0  0
    1.3643   -2.0785   -0.0103 H   0  0  0  0  0  0  0  0  0  0  0  0
  1  2  1  0  0  0  0
  1  5  2  0  0  0  0
  1  9  1  0  0  0  0
  2  6  2  0  0  0  0
  2 10  1  0  0  0  0
  3  4  2  0  0  0  0
  3  5  1  0  0  0  0
  3 11  1  0  0  0  0
  4  6  1  0  0  0  0
  4 12  1  0  0  0  0
  5  7  1  0  0  0  0
  6  8  1  0  0  0  0
M  END
