
 OpenBabel03081821453D

 11 10  0  0  0  0  0  0  0  0999 V2000
    0.9727   -0.0322    0.0399 C   0  0  0  0  0  0  0  0  0  0  0  0
    0.9727   -2.1197    1.5575 C   0  0  0  0  0  0  0  0  0  0  0  0
    0.5881   -1.5044    0.2094 C   0  0  0  0  0  0  0  0  0  0  0  0
    2.7060    0.2196   -0.2707 Cl  0  0  0  0  0  0  0  0  0  0  0  0
    2.7060   -2.4928    1.7012 Cl  0  0  0  0  0  0  0  0  0  0  0  0
   -1.2143   -1.6067    0.0686 Cl  0  0  0  0  0  0  0  0  0  0  0  0
    0.7064    0.5540    0.9257 H   0  0  0  0  0  0  0  0  0  0  0  0
    0.4534    0.4073   -0.8182 H   0  0  0  0  0  0  0  0  0  0  0  0
    0.4534   -3.0715    1.7110 H   0  0  0  0  0  0  0  0  0  0  0  0
    0.7064   -1.4580    2.3884 H   0  0  0  0  0  0  0  0  0  0  0  0
    0.9795   -2.1059   -0.6180 H   0  0  0  0  0  0  0  0  0  0  0  0
  1  3  1  0  0  0  0
  1  4  1  0  0  0  0
  1  7  1  0  0  0  0
  1  8  1  0  0  0  0
  2  3  1  0  0  0  0
  2  5  1  0  0  0  0
  2  9  1  0  0  0  0
  2 10  1  0  0  0  0
  3  6  1  0  0  0  0
  3 11  1  0  0  0  0
M  END
