
 OpenBabel03081821453D

 14 14  0  0  0  0  0  0  0  0999 V2000
   -1.3791   -0.0750    0.0314 C   0  0  0  0  0  0  0  0  0  0  0  0
   -0.7554    1.1736   -0.0042 C   0  0  0  0  0  0  0  0  0  0  0  0
   -0.6169   -1.2446    0.0118 C   0  0  0  0  0  0  0  0  0  0  0  0
    0.6368    1.2594   -0.0598 C   0  0  0  0  0  0  0  0  0  0  0  0
    0.7760   -1.1716   -0.0437 C   0  0  0  0  0  0  0  0  0  0  0  0
    1.3990    0.0833   -0.0793 C   0  0  0  0  0  0  0  0  0  0  0  0
    2.8634    0.1668   -0.1377 N   0  0  0  0  0  0  0  0  0  0  0  0
    3.3767    1.2947   -0.1680 O   0  0  0  0  0  0  0  0  0  0  0  0
    3.5021   -0.8955   -0.1534 O   0  0  0  0  0  0  0  0  0  0  0  0
   -2.4645   -0.1369    0.0747 H   0  0  0  0  0  0  0  0  0  0  0  0
   -1.3558    2.0806    0.0113 H   0  0  0  0  0  0  0  0  0  0  0  0
   -1.1099   -2.2139    0.0398 H   0  0  0  0  0  0  0  0  0  0  0  0
    1.1075    2.2399   -0.0870 H   0  0  0  0  0  0  0  0  0  0  0  0
    1.3555   -2.0923   -0.0583 H   0  0  0  0  0  0  0  0  0  0  0  0
  1  2  2  0  0  0  0
  1  3  1  0  0  0  0
  1 10  1  0  0  0  0
  2  4  1  0  0  0  0
  2 11  1  0  0  0  0
  3  5  2  0  0  0  0
  3 12  1  0  0  0  0
  4  6  2  0  0  0  0
  4 13  1  0  0  0  0
  5  6  1  0  0  0  0
  5 14  1  0  0  0  0
  6  7  1  0  0  0  0
  7  8  2  0  0  0  0
  7  9  2  0  0  0  0
M  END
