
 OpenBabel03081821453D

 19 18  0  0  0  0  0  0  0  0999 V2000
    0.9653   -0.1211   -0.0998 C   0  0  0  0  0  0  0  0  0  0  0  0
    2.5974    0.7961   -1.7638 C   0  0  0  0  0  0  0  0  0  0  0  0
    5.4073   -0.1656    0.8005 C   0  0  0  0  0  0  0  0  0  0  0  0
    3.0787    0.9540    0.7183 C   0  0  0  0  0  0  0  0  0  0  0  0
    2.4459    0.1180   -0.4006 C   0  0  0  0  0  0  0  0  0  0  0  0
    4.5845    1.0776    0.5868 C   0  0  0  0  0  0  0  0  0  0  0  0
    5.1138    2.1506    0.2961 O   0  0  0  0  0  0  0  0  0  0  0  0
    0.5048   -0.7385   -0.8783 H   0  0  0  0  0  0  0  0  0  0  0  0
    0.4126    0.8231   -0.0450 H   0  0  0  0  0  0  0  0  0  0  0  0
    0.8418   -0.6425    0.8553 H   0  0  0  0  0  0  0  0  0  0  0  0
    2.1221    0.1981   -2.5488 H   0  0  0  0  0  0  0  0  0  0  0  0
    3.6520    0.9128   -2.0332 H   0  0  0  0  0  0  0  0  0  0  0  0
    2.1337    1.7885   -1.7682 H   0  0  0  0  0  0  0  0  0  0  0  0
    5.0690   -0.6839    1.7012 H   0  0  0  0  0  0  0  0  0  0  0  0
    6.4569    0.1102    0.9364 H   0  0  0  0  0  0  0  0  0  0  0  0
    5.3198   -0.8219   -0.0681 H   0  0  0  0  0  0  0  0  0  0  0  0
    2.8718    0.5106    1.6997 H   0  0  0  0  0  0  0  0  0  0  0  0
    2.6512    1.9641    0.7351 H   0  0  0  0  0  0  0  0  0  0  0  0
    2.9401   -0.8596   -0.4514 H   0  0  0  0  0  0  0  0  0  0  0  0
  1  5  1  0  0  0  0
  1  8  1  0  0  0  0
  1  9  1  0  0  0  0
  1 10  1  0  0  0  0
  2  5  1  0  0  0  0
  2 11  1  0  0  0  0
  2 12  1  0  0  0  0
  2 13  1  0  0  0  0
  3  6  1  0  0  0  0
  3 14  1  0  0  0  0
  3 15  1  0  0  0  0
  3 16  1  0  0  0  0
  4  5  1  0  0  0  0
  4  6  1  0  0  0  0
  4 17  1  0  0  0  0
  4 18  1  0  0  0  0
  5 19  1  0  0  0  0
  6  7  2  0  0  0  0
M  END
