
 OpenBabel03081821453D

 16 16  0  0  0  0  0  0  0  0999 V2000
    0.9486    0.0476    0.1024 C   0  0  0  0  0  0  0  0  0  0  0  0
    4.5737    1.1842   -0.0922 C   0  0  0  0  0  0  0  0  0  0  0  0
    3.1804    1.2122    0.0057 C   0  0  0  0  0  0  0  0  0  0  0  0
    5.2429   -0.0324   -0.2237 C   0  0  0  0  0  0  0  0  0  0  0  0
    3.1210   -1.1957   -0.1549 C   0  0  0  0  0  0  0  0  0  0  0  0
    2.4414    0.0229   -0.0381 C   0  0  0  0  0  0  0  0  0  0  0  0
    4.5090   -1.2138   -0.2515 C   0  0  0  0  0  0  0  0  0  0  0  0
    5.1213   -2.4268   -0.3706 O   0  0  0  0  0  0  0  0  0  0  0  0
    0.5328    0.9740   -0.3076 H   0  0  0  0  0  0  0  0  0  0  0  0
    0.6708   -0.0278    1.1582 H   0  0  0  0  0  0  0  0  0  0  0  0
    0.4911   -0.7833   -0.4448 H   0  0  0  0  0  0  0  0  0  0  0  0
    5.1364    2.1137   -0.0627 H   0  0  0  0  0  0  0  0  0  0  0  0
    2.6739    2.1686    0.1155 H   0  0  0  0  0  0  0  0  0  0  0  0
    6.3253   -0.0387   -0.2977 H   0  0  0  0  0  0  0  0  0  0  0  0
    2.5742   -2.1349   -0.1720 H   0  0  0  0  0  0  0  0  0  0  0  0
    6.0798   -2.2828   -0.4276 H   0  0  0  0  0  0  0  0  0  0  0  0
  1  6  1  0  0  0  0
  1  9  1  0  0  0  0
  1 10  1  0  0  0  0
  1 11  1  0  0  0  0
  2  3  2  0  0  0  0
  2  4  1  0  0  0  0
  2 12  1  0  0  0  0
  3  6  1  0  0  0  0
  3 13  1  0  0  0  0
  4  7  2  0  0  0  0
  4 14  1  0  0  0  0
  5  6  2  0  0  0  0
  5  7  1  0  0  0  0
  5 15  1  0  0  0  0
  7  8  1  0  0  0  0
  8 16  1  0  0  0  0
M  END
