
 OpenBabel03081821453D

 18 18  0  0  0  0  0  0  0  0999 V2000
    1.0191    0.2955   -0.0008 C   0  0  0  0  0  0  0  0  0  0  0  0
    2.5160    0.0283   -0.0390 C   0  0  0  0  0  0  0  0  0  0  0  0
    3.5164   -2.8539   -3.0853 C   0  0  0  0  0  0  0  0  0  0  0  0
    3.2101   -3.2811   -1.7946 C   0  0  0  0  0  0  0  0  0  0  0  0
    3.5011   -1.4941   -3.3898 C   0  0  0  0  0  0  0  0  0  0  0  0
    2.8903   -2.3483   -0.8067 C   0  0  0  0  0  0  0  0  0  0  0  0
    3.1815   -0.5600   -2.4031 C   0  0  0  0  0  0  0  0  0  0  0  0
    2.8788   -0.9782   -1.1005 C   0  0  0  0  0  0  0  0  0  0  0  0
    0.7855    1.0290    0.7773 H   0  0  0  0  0  0  0  0  0  0  0  0
    0.4575   -0.6195    0.2159 H   0  0  0  0  0  0  0  0  0  0  0  0
    0.6614    0.6903   -0.9578 H   0  0  0  0  0  0  0  0  0  0  0  0
    2.8536   -0.3311    0.9407 H   0  0  0  0  0  0  0  0  0  0  0  0
    3.0553    0.9661   -0.2199 H   0  0  0  0  0  0  0  0  0  0  0  0
    3.7647   -3.5807   -3.8540 H   0  0  0  0  0  0  0  0  0  0  0  0
    3.2185   -4.3415   -1.5570 H   0  0  0  0  0  0  0  0  0  0  0  0
    3.7366   -1.1603   -4.3968 H   0  0  0  0  0  0  0  0  0  0  0  0
    2.6489   -2.6966    0.1950 H   0  0  0  0  0  0  0  0  0  0  0  0
    3.1690    0.4976   -2.6566 H   0  0  0  0  0  0  0  0  0  0  0  0
  1  2  1  0  0  0  0
  1  9  1  0  0  0  0
  1 10  1  0  0  0  0
  1 11  1  0  0  0  0
  2  8  1  0  0  0  0
  2 12  1  0  0  0  0
  2 13  1  0  0  0  0
  3  4  2  0  0  0  0
  3  5  1  0  0  0  0
  3 14  1  0  0  0  0
  4  6  1  0  0  0  0
  4 15  1  0  0  0  0
  5  7  2  0  0  0  0
  5 16  1  0  0  0  0
  6  8  2  0  0  0  0
  6 17  1  0  0  0  0
  7  8  1  0  0  0  0
  7 18  1  0  0  0  0
M  END
