
 OpenBabel03081821453D

 14 13  0  0  0  0  0  0  0  0999 V2000
    0.9253    0.0033   -0.0944 C   0  0  0  0  0  0  0  0  0  0  0  0
    2.4456    0.0066   -0.0747 C   0  0  0  0  0  0  0  0  0  0  0  0
    2.9873    0.2480    1.3342 C   0  0  0  0  0  0  0  0  0  0  0  0
    4.5102    0.2494    1.3428 C   0  0  0  0  0  0  0  0  0  0  0  0
    5.1214    0.5315    2.9892 Cl  0  0  0  0  0  0  0  0  0  0  0  0
    0.5598   -0.1709   -1.1112 H   0  0  0  0  0  0  0  0  0  0  0  0
    0.5263    0.9626    0.2503 H   0  0  0  0  0  0  0  0  0  0  0  0
    0.5263   -0.7866    0.5500 H   0  0  0  0  0  0  0  0  0  0  0  0
    2.8122    0.7858   -0.7532 H   0  0  0  0  0  0  0  0  0  0  0  0
    2.8122   -0.9539   -0.4552 H   0  0  0  0  0  0  0  0  0  0  0  0
    2.6122   -0.5320    2.0084 H   0  0  0  0  0  0  0  0  0  0  0  0
    2.6122    1.2079    1.7104 H   0  0  0  0  0  0  0  0  0  0  0  0
    4.9083    1.0409    0.7006 H   0  0  0  0  0  0  0  0  0  0  0  0
    4.9083   -0.7106    1.0007 H   0  0  0  0  0  0  0  0  0  0  0  0
  1  2  1  0  0  0  0
  1  6  1  0  0  0  0
  1  7  1  0  0  0  0
  1  8  1  0  0  0  0
  2  3  1  0  0  0  0
  2  9  1  0  0  0  0
  2 10  1  0  0  0  0
  3  4  1  0  0  0  0
  3 11  1  0  0  0  0
  3 12  1  0  0  0  0
  4  5  1  0  0  0  0
  4 13  1  0  0  0  0
  4 14  1  0  0  0  0
M  END
