
 OpenBabel03081821453D

 20 19  0  0  0  0  0  0  0  0999 V2000
    1.0340   -0.0831    0.0759 C   0  0  0  0  0  0  0  0  0  0  0  0
    3.0580   -1.2395   -0.8537 C   0  0  0  0  0  0  0  0  0  0  0  0
    4.4279    3.5279   -1.5064 C   0  0  0  0  0  0  0  0  0  0  0  0
    3.0509    1.2751   -0.5640 C   0  0  0  0  0  0  0  0  0  0  0  0
    2.5590   -0.0671   -0.0063 C   0  0  0  0  0  0  0  0  0  0  0  0
    5.2011    2.3666   -0.9534 C   0  0  0  0  0  0  0  0  0  0  0  0
    6.4272    2.3727   -0.9047 O   0  0  0  0  0  0  0  0  0  0  0  0
    4.4894    1.3036   -0.5072 O   0  0  0  0  0  0  0  0  0  0  0  0
    0.6770   -1.0272    0.5008 H   0  0  0  0  0  0  0  0  0  0  0  0
    0.5810    0.0357   -0.9143 H   0  0  0  0  0  0  0  0  0  0  0  0
    0.6705    0.7287    0.7146 H   0  0  0  0  0  0  0  0  0  0  0  0
    2.7006   -2.1914   -0.4466 H   0  0  0  0  0  0  0  0  0  0  0  0
    4.1520   -1.2781   -0.8713 H   0  0  0  0  0  0  0  0  0  0  0  0
    2.7048   -1.1602   -1.8875 H   0  0  0  0  0  0  0  0  0  0  0  0
    5.1320    4.3091   -1.8111 H   0  0  0  0  0  0  0  0  0  0  0  0
    3.7742    3.9533   -0.7418 H   0  0  0  0  0  0  0  0  0  0  0  0
    3.8643    3.2266   -2.3920 H   0  0  0  0  0  0  0  0  0  0  0  0
    2.6558    2.0938    0.0473 H   0  0  0  0  0  0  0  0  0  0  0  0
    2.7214    1.3960   -1.6019 H   0  0  0  0  0  0  0  0  0  0  0  0
    2.9673   -0.1955    1.0043 H   0  0  0  0  0  0  0  0  0  0  0  0
  1  5  1  0  0  0  0
  1  9  1  0  0  0  0
  1 10  1  0  0  0  0
  1 11  1  0  0  0  0
  2  5  1  0  0  0  0
  2 12  1  0  0  0  0
  2 13  1  0  0  0  0
  2 14  1  0  0  0  0
  3  6  1  0  0  0  0
  3 15  1  0  0  0  0
  3 16  1  0  0  0  0
  3 17  1  0  0  0  0
  4  5  1  0  0  0  0
  4  8  1  0  0  0  0
  4 18  1  0  0  0  0
  4 19  1  0  0  0  0
  5 20  1  0  0  0  0
  6  7  2  0  0  0  0
  6  8  1  0  0  0  0
M  END
