
 OpenBabel03081821453D

 20 19  0  0  0  0  0  0  0  0999 V2000
    1.0356    0.0392   -0.0116 C   0  0  0  0  0  0  0  0  0  0  0  0
    6.6854    2.9517   -0.2204 C   0  0  0  0  0  0  0  0  0  0  0  0
    2.5559    0.0606   -0.0131 C   0  0  0  0  0  0  0  0  0  0  0  0
    5.1652    2.9303   -0.2189 C   0  0  0  0  0  0  0  0  0  0  0  0
    3.0958    1.4868   -0.1154 C   0  0  0  0  0  0  0  0  0  0  0  0
    4.6253    1.5040   -0.1166 C   0  0  0  0  0  0  0  0  0  0  0  0
    0.6711   -0.9902    0.0623 H   0  0  0  0  0  0  0  0  0  0  0  0
    0.6362    0.4758   -0.9325 H   0  0  0  0  0  0  0  0  0  0  0  0
    0.6362    0.6027    0.8377 H   0  0  0  0  0  0  0  0  0  0  0  0
    7.0499    3.9811   -0.2942 H   0  0  0  0  0  0  0  0  0  0  0  0
    7.0849    2.3881   -1.0696 H   0  0  0  0  0  0  0  0  0  0  0  0
    7.0849    2.5151    0.7005 H   0  0  0  0  0  0  0  0  0  0  0  0
    2.9230   -0.5380   -0.8549 H   0  0  0  0  0  0  0  0  0  0  0  0
    2.9230   -0.4118    0.9055 H   0  0  0  0  0  0  0  0  0  0  0  0
    4.7981    3.4026   -1.1375 H   0  0  0  0  0  0  0  0  0  0  0  0
    4.7981    3.5289    0.6229 H   0  0  0  0  0  0  0  0  0  0  0  0
    2.7223    2.0823    0.7266 H   0  0  0  0  0  0  0  0  0  0  0  0
    2.7223    1.9561   -1.0337 H   0  0  0  0  0  0  0  0  0  0  0  0
    4.9988    1.0348    0.8017 H   0  0  0  0  0  0  0  0  0  0  0  0
    4.9988    0.9085   -0.9586 H   0  0  0  0  0  0  0  0  0  0  0  0
  1  3  1  0  0  0  0
  1  7  1  0  0  0  0
  1  8  1  0  0  0  0
  1  9  1  0  0  0  0
  2  4  1  0  0  0  0
  2 10  1  0  0  0  0
  2 11  1  0  0  0  0
  2 12  1  0  0  0  0
  3  5  1  0  0  0  0
  3 13  1  0  0  0  0
  3 14  1  0  0  0  0
  4  6  1  0  0  0  0
  4 15  1  0  0  0  0
  4 16  1  0  0  0  0
  5  6  1  0  0  0  0
  5 17  1  0  0  0  0
  5 18  1  0  0  0  0
  6 19  1  0  0  0  0
  6 20  1  0  0  0  0
M  END
