
 OpenBabel03081821453D

 14 13  0  0  0  0  0  0  0  0999 V2000
    1.1062    0.0189    0.0389 C   0  0  0  0  0  0  0  0  0  0  0  0
    0.5668    0.5568   -1.2873 C   0  0  0  0  0  0  0  0  0  0  0  0
    2.6294    0.0140    0.0508 C   0  0  0  0  0  0  0  0  0  0  0  0
   -0.9564    0.5617   -1.2993 C   0  0  0  0  0  0  0  0  0  0  0  0
    3.2315   -0.6149    1.6013 Cl  0  0  0  0  0  0  0  0  0  0  0  0
   -1.5584    1.1906   -2.8497 Cl  0  0  0  0  0  0  0  0  0  0  0  0
    0.7299   -0.9990    0.2000 H   0  0  0  0  0  0  0  0  0  0  0  0
    0.7299    0.6369    0.8636 H   0  0  0  0  0  0  0  0  0  0  0  0
    0.9432   -0.0613   -2.1120 H   0  0  0  0  0  0  0  0  0  0  0  0
    0.9432    1.5747   -1.4484 H   0  0  0  0  0  0  0  0  0  0  0  0
    3.0292    1.0246   -0.0762 H   0  0  0  0  0  0  0  0  0  0  0  0
    3.0292   -0.6224   -0.7443 H   0  0  0  0  0  0  0  0  0  0  0  0
   -1.3561    1.1981   -0.5041 H   0  0  0  0  0  0  0  0  0  0  0  0
   -1.3561   -0.4489   -1.1722 H   0  0  0  0  0  0  0  0  0  0  0  0
  1  2  1  0  0  0  0
  1  3  1  0  0  0  0
  1  7  1  0  0  0  0
  1  8  1  0  0  0  0
  2  4  1  0  0  0  0
  2  9  1  0  0  0  0
  2 10  1  0  0  0  0
  3  5  1  0  0  0  0
  3 11  1  0  0  0  0
  3 12  1  0  0  0  0
  4  6  1  0  0  0  0
  4 13  1  0  0  0  0
  4 14  1  0  0  0  0
M  END
