
 OpenBabel03081821453D

 18 18  0  0  0  0  0  0  0  0999 V2000
    0.7258    1.2619   -0.2288 C   0  0  0  0  0  0  0  0  0  0  0  0
    1.4567   -0.0009    0.2194 C   0  0  0  0  0  0  0  0  0  0  0  0
   -0.7298    1.2626    0.2303 C   0  0  0  0  0  0  0  0  0  0  0  0
    0.7249   -1.2635   -0.2280 C   0  0  0  0  0  0  0  0  0  0  0  0
   -1.4616    0.0000   -0.2171 C   0  0  0  0  0  0  0  0  0  0  0  0
   -0.7308   -1.2628    0.2311 C   0  0  0  0  0  0  0  0  0  0  0  0
    0.7628    1.3353   -1.3227 H   0  0  0  0  0  0  0  0  0  0  0  0
    1.2383    2.1453    0.1682 H   0  0  0  0  0  0  0  0  0  0  0  0
    1.5476   -0.0006    1.3126 H   0  0  0  0  0  0  0  0  0  0  0  0
    2.4748   -0.0015   -0.1859 H   0  0  0  0  0  0  0  0  0  0  0  0
   -1.2417    2.1462   -0.1674 H   0  0  0  0  0  0  0  0  0  0  0  0
   -0.7668    1.3368    1.3241 H   0  0  0  0  0  0  0  0  0  0  0  0
    1.2367   -2.1471    0.1696 H   0  0  0  0  0  0  0  0  0  0  0  0
    0.7618   -1.3377   -1.3218 H   0  0  0  0  0  0  0  0  0  0  0  0
   -1.5526   -0.0003   -1.3103 H   0  0  0  0  0  0  0  0  0  0  0  0
   -2.4798    0.0006    0.1881 H   0  0  0  0  0  0  0  0  0  0  0  0
   -0.7678   -1.3362    1.3250 H   0  0  0  0  0  0  0  0  0  0  0  0
   -1.2433   -2.1462   -0.1659 H   0  0  0  0  0  0  0  0  0  0  0  0
  1  2  1  0  0  0  0
  1  3  1  0  0  0  0
  1  7  1  0  0  0  0
  1  8  1  0  0  0  0
  2  4  1  0  0  0  0
  2  9  1  0  0  0  0
  2 10  1  0  0  0  0
  3  5  1  0  0  0  0
  3 11  1  0  0  0  0
  3 12  1  0  0  0  0
  4  6  1  0  0  0  0
  4 13  1  0  0  0  0
  4 14  1  0  0  0  0
  5  6  1  0  0  0  0
  5 15  1  0  0  0  0
  5 16  1  0  0  0  0
  6 17  1  0  0  0  0
  6 18  1  0  0  0  0
M  END
