
 OpenBabel03081821453D

 26 25  0  0  0  0  0  0  0  0999 V2000
    0.9257   -0.0271   -0.0518 C   0  0  0  0  0  0  0  0  0  0  0  0
    8.6368   -3.4737   -2.7596 C   0  0  0  0  0  0  0  0  0  0  0  0
    2.4459   -0.0463   -0.0669 C   0  0  0  0  0  0  0  0  0  0  0  0
    7.1167   -3.4545   -2.7446 C   0  0  0  0  0  0  0  0  0  0  0  0
    2.9830   -1.1715   -0.9509 C   0  0  0  0  0  0  0  0  0  0  0  0
    6.5795   -2.3293   -1.8605 C   0  0  0  0  0  0  0  0  0  0  0  0
    4.5125   -1.1874   -0.9634 C   0  0  0  0  0  0  0  0  0  0  0  0
    5.0501   -2.3134   -1.8481 C   0  0  0  0  0  0  0  0  0  0  0  0
    0.5632    0.7850    0.5862 H   0  0  0  0  0  0  0  0  0  0  0  0
    0.5253   -0.9689    0.3367 H   0  0  0  0  0  0  0  0  0  0  0  0
    0.5253    0.1275   -1.0588 H   0  0  0  0  0  0  0  0  0  0  0  0
    8.9993   -4.2858   -3.3976 H   0  0  0  0  0  0  0  0  0  0  0  0
    9.0372   -3.6283   -1.7526 H   0  0  0  0  0  0  0  0  0  0  0  0
    9.0372   -2.5319   -3.1481 H   0  0  0  0  0  0  0  0  0  0  0  0
    2.8141   -0.1699    0.9582 H   0  0  0  0  0  0  0  0  0  0  0  0
    2.8141    0.9204   -0.4296 H   0  0  0  0  0  0  0  0  0  0  0  0
    6.7485   -4.4213   -2.3818 H   0  0  0  0  0  0  0  0  0  0  0  0
    6.7485   -3.3309   -3.7697 H   0  0  0  0  0  0  0  0  0  0  0  0
    2.6085   -1.0455   -1.9741 H   0  0  0  0  0  0  0  0  0  0  0  0
    2.6085   -2.1358   -0.5863 H   0  0  0  0  0  0  0  0  0  0  0  0
    6.9541   -1.3650   -2.2251 H   0  0  0  0  0  0  0  0  0  0  0  0
    6.9541   -2.4553   -0.8373 H   0  0  0  0  0  0  0  0  0  0  0  0
    4.8868   -1.3136    0.0598 H   0  0  0  0  0  0  0  0  0  0  0  0
    4.8868   -0.2231   -1.3281 H   0  0  0  0  0  0  0  0  0  0  0  0
    4.6757   -3.2777   -1.4833 H   0  0  0  0  0  0  0  0  0  0  0  0
    4.6757   -2.1873   -2.8713 H   0  0  0  0  0  0  0  0  0  0  0  0
  1  3  1  0  0  0  0
  1  9  1  0  0  0  0
  1 10  1  0  0  0  0
  1 11  1  0  0  0  0
  2  4  1  0  0  0  0
  2 12  1  0  0  0  0
  2 13  1  0  0  0  0
  2 14  1  0  0  0  0
  3  5  1  0  0  0  0
  3 15  1  0  0  0  0
  3 16  1  0  0  0  0
  4  6  1  0  0  0  0
  4 17  1  0  0  0  0
  4 18  1  0  0  0  0
  5  7  1  0  0  0  0
  5 19  1  0  0  0  0
  5 20  1  0  0  0  0
  6  8  1  0  0  0  0
  6 21  1  0  0  0  0
  6 22  1  0  0  0  0
  7  8  1  0  0  0  0
  7 23  1  0  0  0  0
  7 24  1  0  0  0  0
  8 25  1  0  0  0  0
  8 26  1  0  0  0  0
M  END
