
 OpenBabel03081821453D

 27 26  0  0  0  0  0  0  0  0999 V2000
    0.9253    0.1272   -0.0437 C   0  0  0  0  0  0  0  0  0  0  0  0
    2.4455    0.1096   -0.0274 C   0  0  0  0  0  0  0  0  0  0  0  0
    2.9831   -0.9337    0.9516 C   0  0  0  0  0  0  0  0  0  0  0  0
    4.5125   -0.9482    0.9650 C   0  0  0  0  0  0  0  0  0  0  0  0
    5.0506   -1.9921    1.9449 C   0  0  0  0  0  0  0  0  0  0  0  0
    6.5800   -2.0065    1.9584 C   0  0  0  0  0  0  0  0  0  0  0  0
    7.1174   -3.0486    2.9368 C   0  0  0  0  0  0  0  0  0  0  0  0
    8.6402   -3.0686    2.9556 C   0  0  0  0  0  0  0  0  0  0  0  0
    9.0981   -4.0618    3.8633 O   0  0  0  0  0  0  0  0  0  0  0  0
    0.5625    0.8802   -0.7502 H   0  0  0  0  0  0  0  0  0  0  0  0
    0.5252    0.3693    0.9461 H   0  0  0  0  0  0  0  0  0  0  0  0
    0.5250   -0.8451   -0.3481 H   0  0  0  0  0  0  0  0  0  0  0  0
    2.8136    1.1045    0.2491 H   0  0  0  0  0  0  0  0  0  0  0  0
    2.8134   -0.1032   -1.0379 H   0  0  0  0  0  0  0  0  0  0  0  0
    2.6086   -1.9263    0.6730 H   0  0  0  0  0  0  0  0  0  0  0  0
    2.6088   -0.7187    1.9600 H   0  0  0  0  0  0  0  0  0  0  0  0
    4.8868    0.0445    1.2437 H   0  0  0  0  0  0  0  0  0  0  0  0
    4.8867   -1.1635   -0.0433 H   0  0  0  0  0  0  0  0  0  0  0  0
    4.6764   -2.9848    1.6663 H   0  0  0  0  0  0  0  0  0  0  0  0
    4.6764   -1.7768    2.9532 H   0  0  0  0  0  0  0  0  0  0  0  0
    6.9544   -1.0139    2.2370 H   0  0  0  0  0  0  0  0  0  0  0  0
    6.9542   -2.2219    0.9501 H   0  0  0  0  0  0  0  0  0  0  0  0
    6.7451   -4.0463    2.6725 H   0  0  0  0  0  0  0  0  0  0  0  0
    6.7430   -2.8470    3.9481 H   0  0  0  0  0  0  0  0  0  0  0  0
    9.0480   -2.1010    3.2652 H   0  0  0  0  0  0  0  0  0  0  0  0
    9.0391   -3.3080    1.9650 H   0  0  0  0  0  0  0  0  0  0  0  0
    8.7541   -3.8346    4.7440 H   0  0  0  0  0  0  0  0  0  0  0  0
  1  2  1  0  0  0  0
  1 10  1  0  0  0  0
  1 11  1  0  0  0  0
  1 12  1  0  0  0  0
  2  3  1  0  0  0  0
  2 13  1  0  0  0  0
  2 14  1  0  0  0  0
  3  4  1  0  0  0  0
  3 15  1  0  0  0  0
  3 16  1  0  0  0  0
  4  5  1  0  0  0  0
  4 17  1  0  0  0  0
  4 18  1  0  0  0  0
  5  6  1  0  0  0  0
  5 19  1  0  0  0  0
  5 20  1  0  0  0  0
  6  7  1  0  0  0  0
  6 21  1  0  0  0  0
  6 22  1  0  0  0  0
  7  8  1  0  0  0  0
  7 23  1  0  0  0  0
  7 24  1  0  0  0  0
  8  9  1  0  0  0  0
  8 25  1  0  0  0  0
  8 26  1  0  0  0  0
  9 27  1  0  0  0  0
M  END
