
 OpenBabel03081821453D

 13 13  0  0  0  0  0  0  0  0999 V2000
   -1.3669   -0.0542   -0.0134 C   0  0  0  0  0  0  0  0  0  0  0  0
   -0.7315    1.1895   -0.0305 C   0  0  0  0  0  0  0  0  0  0  0  0
    0.7849   -1.1683   -0.0249 C   0  0  0  0  0  0  0  0  0  0  0  0
   -0.6070   -1.2247   -0.0107 C   0  0  0  0  0  0  0  0  0  0  0  0
    1.4205    0.0736   -0.0420 C   0  0  0  0  0  0  0  0  0  0  0  0
    0.6623    1.2505   -0.0448 C   0  0  0  0  0  0  0  0  0  0  0  0
   -1.3991   -2.7521    0.0104 Cl  0  0  0  0  0  0  0  0  0  0  0  0
    3.1459    0.1162   -0.0594 Cl  0  0  0  0  0  0  0  0  0  0  0  0
    1.2881    2.4660   -0.0616 O   0  0  0  0  0  0  0  0  0  0  0  0
   -2.4530   -0.1053   -0.0023 H   0  0  0  0  0  0  0  0  0  0  0  0
   -1.3355    2.0922   -0.0324 H   0  0  0  0  0  0  0  0  0  0  0  0
    1.3708   -2.0830   -0.0227 H   0  0  0  0  0  0  0  0  0  0  0  0
    0.6255    3.1755   -0.0612 H   0  0  0  0  0  0  0  0  0  0  0  0
  1  2  2  0  0  0  0
  1  4  1  0  0  0  0
  1 10  1  0  0  0  0
  2  6  1  0  0  0  0
  2 11  1  0  0  0  0
  3  4  2  0  0  0  0
  3  5  1  0  0  0  0
  3 12  1  0  0  0  0
  4  7  1  0  0  0  0
  5  6  2  0  0  0  0
  5  8  1  0  0  0  0
  6  9  1  0  0  0  0
  9 13  1  0  0  0  0
M  END
