
 OpenBabel03081821453D

 29 28  0  0  0  0  0  0  0  0999 V2000
    0.9965   -0.0276    0.1039 C   0  0  0  0  0  0  0  0  0  0  0  0
    0.4629   -1.0779   -0.8720 C   0  0  0  0  0  0  0  0  0  0  0  0
    2.5260   -0.0092    0.1210 C   0  0  0  0  0  0  0  0  0  0  0  0
   -1.0662   -1.0958   -0.8886 C   0  0  0  0  0  0  0  0  0  0  0  0
    3.0587    1.0410    1.0968 C   0  0  0  0  0  0  0  0  0  0  0  0
   -1.6004   -2.1445   -1.8630 C   0  0  0  0  0  0  0  0  0  0  0  0
    4.5864    1.0604    1.1148 C   0  0  0  0  0  0  0  0  0  0  0  0
   -3.1113   -2.1734   -1.8898 C   0  0  0  0  0  0  0  0  0  0  0  0
    5.1272    2.0944    2.0755 C   0  0  0  0  0  0  0  0  0  0  0  0
   -3.8460   -1.4599   -1.2269 O   0  0  0  0  0  0  0  0  0  0  0  0
   -3.5897   -3.1012   -2.7519 O   0  0  0  0  0  0  0  0  0  0  0  0
    4.4539    2.8396    2.7679 O   0  0  0  0  0  0  0  0  0  0  0  0
    6.4808    2.1155    2.0951 O   0  0  0  0  0  0  0  0  0  0  0  0
    0.6205   -0.2388    1.1124 H   0  0  0  0  0  0  0  0  0  0  0  0
    0.6205    0.9626   -0.1807 H   0  0  0  0  0  0  0  0  0  0  0  0
    0.8387   -2.0682   -0.5874 H   0  0  0  0  0  0  0  0  0  0  0  0
    0.8387   -0.8667   -1.8805 H   0  0  0  0  0  0  0  0  0  0  0  0
    2.9021    0.2021   -0.8874 H   0  0  0  0  0  0  0  0  0  0  0  0
    2.9021   -0.9993    0.4058 H   0  0  0  0  0  0  0  0  0  0  0  0
   -1.4444   -0.1048   -1.1693 H   0  0  0  0  0  0  0  0  0  0  0  0
   -1.4444   -1.3030    0.1203 H   0  0  0  0  0  0  0  0  0  0  0  0
    2.6805    0.8337    2.1057 H   0  0  0  0  0  0  0  0  0  0  0  0
    2.6805    2.0319    0.8161 H   0  0  0  0  0  0  0  0  0  0  0  0
   -1.2449   -3.1379   -1.5674 H   0  0  0  0  0  0  0  0  0  0  0  0
   -1.2449   -1.9226   -2.8754 H   0  0  0  0  0  0  0  0  0  0  0  0
    4.9644    1.2939    0.1132 H   0  0  0  0  0  0  0  0  0  0  0  0
    4.9644    0.0787    1.4212 H   0  0  0  0  0  0  0  0  0  0  0  0
   -2.8935   -3.6019   -3.2171 H   0  0  0  0  0  0  0  0  0  0  0  0
    6.8931    1.4678    1.4933 H   0  0  0  0  0  0  0  0  0  0  0  0
  1  2  1  0  0  0  0
  1  3  1  0  0  0  0
  1 14  1  0  0  0  0
  1 15  1  0  0  0  0
  2  4  1  0  0  0  0
  2 16  1  0  0  0  0
  2 17  1  0  0  0  0
  3  5  1  0  0  0  0
  3 18  1  0  0  0  0
  3 19  1  0  0  0  0
  4  6  1  0  0  0  0
  4 20  1  0  0  0  0
  4 21  1  0  0  0  0
  5  7  1  0  0  0  0
  5 22  1  0  0  0  0
  5 23  1  0  0  0  0
  6  8  1  0  0  0  0
  6 24  1  0  0  0  0
  6 25  1  0  0  0  0
  7  9  1  0  0  0  0
  7 26  1  0  0  0  0
  7 27  1  0  0  0  0
  8 10  2  0  0  0  0
  8 11  1  0  0  0  0
  9 12  2  0  0  0  0
  9 13  1  0  0  0  0
 11 28  1  0  0  0  0
 13 29  1  0  0  0  0
M  END
