
 OpenBabel03081821453D

 11 10  0  0  0  0  0  0  0  0999 V2000
    1.0370   -0.1179   -0.0216 C   0  0  0  0  0  0  0  0  0  0  0  0
    0.4740   -0.3437    1.3850 C   0  0  0  0  0  0  0  0  0  0  0  0
    2.4955   -0.0699   -0.0350 N   0  0  0  0  0  0  0  0  0  0  0  0
   -0.9498   -0.3002    1.3644 O   0  0  0  0  0  0  0  0  0  0  0  0
    0.6352    0.8142   -0.4355 H   0  0  0  0  0  0  0  0  0  0  0  0
    0.6900   -0.9204   -0.6823 H   0  0  0  0  0  0  0  0  0  0  0  0
    0.8285    0.4220    2.0834 H   0  0  0  0  0  0  0  0  0  0  0  0
    0.7772   -1.3227    1.7699 H   0  0  0  0  0  0  0  0  0  0  0  0
    2.8228    0.7301    0.5050 H   0  0  0  0  0  0  0  0  0  0  0  0
    2.8191    0.0784   -0.9904 H   0  0  0  0  0  0  0  0  0  0  0  0
   -1.2104    0.6026    1.1151 H   0  0  0  0  0  0  0  0  0  0  0  0
  1  2  1  0  0  0  0
  1  3  1  0  0  0  0
  1  5  1  0  0  0  0
  1  6  1  0  0  0  0
  2  4  1  0  0  0  0
  2  7  1  0  0  0  0
  2  8  1  0  0  0  0
  3  9  1  0  0  0  0
  3 10  1  0  0  0  0
  4 11  1  0  0  0  0
M  END
