
 OpenBabel03081821453D

 13 13  0  0  0  0  0  0  0  0999 V2000
   -0.6620    1.2062    0.0004 C   0  0  0  0  0  0  0  0  0  0  0  0
   -1.3651   -0.0009    0.0002 C   0  0  0  0  0  0  0  0  0  0  0  0
    0.7294    1.1925    0.0005 C   0  0  0  0  0  0  0  0  0  0  0  0
   -0.6801   -1.2273    0.0000 C   0  0  0  0  0  0  0  0  0  0  0  0
    1.4345   -0.0201    0.0003 C   0  0  0  0  0  0  0  0  0  0  0  0
    0.7285   -1.2365    0.0001 C   0  0  0  0  0  0  0  0  0  0  0  0
   -3.0933    0.1024    0.0002 Cl  0  0  0  0  0  0  0  0  0  0  0  0
   -1.5770   -2.7175   -0.0002 Cl  0  0  0  0  0  0  0  0  0  0  0  0
    3.1704    0.0217    0.0004 Cl  0  0  0  0  0  0  0  0  0  0  0  0
    1.5951   -2.7465   -0.0001 Cl  0  0  0  0  0  0  0  0  0  0  0  0
    1.4120    2.3789    0.0007 O   0  0  0  0  0  0  0  0  0  0  0  0
   -1.2077    2.1463    0.0006 H   0  0  0  0  0  0  0  0  0  0  0  0
    0.7958    3.1304    0.0008 H   0  0  0  0  0  0  0  0  0  0  0  0
  1  2  2  0  0  0  0
  1  3  1  0  0  0  0
  1 12  1  0  0  0  0
  2  4  1  0  0  0  0
  2  7  1  0  0  0  0
  3  5  2  0  0  0  0
  3 11  1  0  0  0  0
  4  6  2  0  0  0  0
  4  8  1  0  0  0  0
  5  6  1  0  0  0  0
  5  9  1  0  0  0  0
  6 10  1  0  0  0  0
 11 13  1  0  0  0  0
M  END
