
 OpenBabel03081821453D

 17 17  0  0  0  0  0  0  0  0999 V2000
   -1.3645   -0.1425    0.0236 C   0  0  0  0  0  0  0  0  0  0  0  0
   -0.6083    0.9699    0.3958 C   0  0  0  0  0  0  0  0  0  0  0  0
    0.6646   -1.3189   -0.5760 C   0  0  0  0  0  0  0  0  0  0  0  0
   -0.7211   -1.2769   -0.4590 C   0  0  0  0  0  0  0  0  0  0  0  0
    1.4377   -0.2090   -0.2060 C   0  0  0  0  0  0  0  0  0  0  0  0
    0.7848    0.9344    0.2807 C   0  0  0  0  0  0  0  0  0  0  0  0
    2.9182   -0.3286   -0.3597 C   0  0  0  0  0  0  0  0  0  0  0  0
   -1.4219   -2.3839   -0.8332 O   0  0  0  0  0  0  0  0  0  0  0  0
    1.5125    2.0375    0.6515 O   0  0  0  0  0  0  0  0  0  0  0  0
    3.4566   -1.3378   -0.7869 O   0  0  0  0  0  0  0  0  0  0  0  0
    3.6255    0.7607    0.0077 O   0  0  0  0  0  0  0  0  0  0  0  0
   -2.4462   -0.1078    0.1156 H   0  0  0  0  0  0  0  0  0  0  0  0
   -1.1222    1.8504    0.7714 H   0  0  0  0  0  0  0  0  0  0  0  0
    1.1407   -2.2207   -0.9571 H   0  0  0  0  0  0  0  0  0  0  0  0
   -2.3710   -2.2245   -0.7029 H   0  0  0  0  0  0  0  0  0  0  0  0
    0.8968    2.7288    0.9616 H   0  0  0  0  0  0  0  0  0  0  0  0
    3.0489    1.4885    0.3293 H   0  0  0  0  0  0  0  0  0  0  0  0
  1  2  2  0  0  0  0
  1  4  1  0  0  0  0
  1 12  1  0  0  0  0
  2  6  1  0  0  0  0
  2 13  1  0  0  0  0
  3  4  2  0  0  0  0
  3  5  1  0  0  0  0
  3 14  1  0  0  0  0
  4  8  1  0  0  0  0
  5  6  2  0  0  0  0
  5  7  1  0  0  0  0
  6  9  1  0  0  0  0
  7 10  2  0  0  0  0
  7 11  1  0  0  0  0
  8 15  1  0  0  0  0
  9 16  1  0  0  0  0
 11 17  1  0  0  0  0
M  END
