
 OpenBabel03081821453D

  4  3  0  0  0  0  0  0  0  0999 V2000
    1.0866    0.0338   -0.0855 C   0  0  0  0  0  0  0  0  0  0  0  0
    2.3112    0.0338   -0.0855 O   0  0  0  0  0  0  0  0  0  0  0  0
    0.4989    0.8879   -0.4583 H   0  0  0  0  0  0  0  0  0  0  0  0
    0.4989   -0.8202    0.2872 H   0  0  0  0  0  0  0  0  0  0  0  0
  1  2  2  0  0  0  0
  1  3  1  0  0  0  0
  1  4  1  0  0  0  0
M  END
