
 OpenBabel03081821453D

 12 12  0  0  0  0  0  0  0  0999 V2000
   -0.7561    1.1621    0.0029 C   0  0  0  0  0  0  0  0  0  0  0  0
   -1.3848   -0.0839   -0.0045 C   0  0  0  0  0  0  0  0  0  0  0  0
    0.6375    1.2367   -0.0057 C   0  0  0  0  0  0  0  0  0  0  0  0
    0.7748   -1.1822   -0.0289 C   0  0  0  0  0  0  0  0  0  0  0  0
   -0.6167   -1.2490   -0.0203 C   0  0  0  0  0  0  0  0  0  0  0  0
    1.3954    0.0650   -0.0216 C   0  0  0  0  0  0  0  0  0  0  0  0
   -1.3971   -2.7827   -0.0293 Cl  0  0  0  0  0  0  0  0  0  0  0  0
    3.1135    0.1629   -0.0321 Cl  0  0  0  0  0  0  0  0  0  0  0  0
   -1.3506    2.0724    0.0152 H   0  0  0  0  0  0  0  0  0  0  0  0
   -2.4705   -0.1407    0.0022 H   0  0  0  0  0  0  0  0  0  0  0  0
    1.1260    2.2080    0.0000 H   0  0  0  0  0  0  0  0  0  0  0  0
    1.3686   -2.0914   -0.0413 H   0  0  0  0  0  0  0  0  0  0  0  0
  1  2  2  0  0  0  0
  1  3  1  0  0  0  0
  1  9  1  0  0  0  0
  2  5  1  0  0  0  0
  2 10  1  0  0  0  0
  3  6  2  0  0  0  0
  3 11  1  0  0  0  0
  4  5  2  0  0  0  0
  4  6  1  0  0  0  0
  4 12  1  0  0  0  0
  5  7  1  0  0  0  0
  6  8  1  0  0  0  0
M  END
