
 OpenBabel03081821453D

 27 26  0  0  0  0  0  0  0  0999 V2000
    1.0009   -0.0600    0.6112 C   0  0  0  0  0  0  0  0  0  0  0  0
    3.2677   -1.3639   -4.1234 C   0  0  0  0  0  0  0  0  0  0  0  0
    2.4107    0.1945    0.1018 C   0  0  0  0  0  0  0  0  0  0  0  0
    4.7061   -1.5549   -3.6694 C   0  0  0  0  0  0  0  0  0  0  0  0
    2.9124   -0.9640   -0.7614 C   0  0  0  0  0  0  0  0  0  0  0  0
    4.3380   -0.7051   -1.2635 C   0  0  0  0  0  0  0  0  0  0  0  0
    6.3644   -2.0814   -1.8465 C   0  0  0  0  0  0  0  0  0  0  0  0
    4.8748   -1.8434   -2.1594 C   0  0  0  0  0  0  0  0  0  0  0  0
    6.8702   -3.1952   -2.5718 O   0  0  0  0  0  0  0  0  0  0  0  0
    0.6625    0.7801    1.2257 H   0  0  0  0  0  0  0  0  0  0  0  0
    0.9629   -0.9663    1.2240 H   0  0  0  0  0  0  0  0  0  0  0  0
    0.2986   -0.1773   -0.2202 H   0  0  0  0  0  0  0  0  0  0  0  0
    3.2269   -1.2925   -5.2153 H   0  0  0  0  0  0  0  0  0  0  0  0
    2.8406   -0.4408   -3.7215 H   0  0  0  0  0  0  0  0  0  0  0  0
    2.6418   -2.2079   -3.8178 H   0  0  0  0  0  0  0  0  0  0  0  0
    3.0808    0.3401    0.9570 H   0  0  0  0  0  0  0  0  0  0  0  0
    2.4202    1.1233   -0.4804 H   0  0  0  0  0  0  0  0  0  0  0  0
    5.2849   -0.6643   -3.9442 H   0  0  0  0  0  0  0  0  0  0  0  0
    5.1268   -2.3882   -4.2453 H   0  0  0  0  0  0  0  0  0  0  0  0
    2.2263   -1.1120   -1.6004 H   0  0  0  0  0  0  0  0  0  0  0  0
    2.8991   -1.8893   -0.1721 H   0  0  0  0  0  0  0  0  0  0  0  0
    4.9797   -0.5908   -0.3802 H   0  0  0  0  0  0  0  0  0  0  0  0
    4.3820    0.2516   -1.7982 H   0  0  0  0  0  0  0  0  0  0  0  0
    6.5131   -2.2856   -0.7808 H   0  0  0  0  0  0  0  0  0  0  0  0
    6.9659   -1.2046   -2.1090 H   0  0  0  0  0  0  0  0  0  0  0  0
    4.3382   -2.7753   -1.9368 H   0  0  0  0  0  0  0  0  0  0  0  0
    6.3354   -3.9698   -2.3279 H   0  0  0  0  0  0  0  0  0  0  0  0
  1  3  1  0  0  0  0
  1 10  1  0  0  0  0
  1 11  1  0  0  0  0
  1 12  1  0  0  0  0
  2  4  1  0  0  0  0
  2 13  1  0  0  0  0
  2 14  1  0  0  0  0
  2 15  1  0  0  0  0
  3  5  1  0  0  0  0
  3 16  1  0  0  0  0
  3 17  1  0  0  0  0
  4  8  1  0  0  0  0
  4 18  1  0  0  0  0
  4 19  1  0  0  0  0
  5  6  1  0  0  0  0
  5 20  1  0  0  0  0
  5 21  1  0  0  0  0
  6  8  1  0  0  0  0
  6 22  1  0  0  0  0
  6 23  1  0  0  0  0
  7  8  1  0  0  0  0
  7  9  1  0  0  0  0
  7 24  1  0  0  0  0
  7 25  1  0  0  0  0
  8 26  1  0  0  0  0
  9 27  1  0  0  0  0
M  END
