
 OpenBabel03081821453D

 13 13  0  0  0  0  0  0  0  0999 V2000
   -0.6869    1.2017   -0.0006 C   0  0  0  0  0  0  0  0  0  0  0  0
   -0.6766   -1.2240    0.0003 C   0  0  0  0  0  0  0  0  0  0  0  0
    1.4135   -0.0023    0.0013 C   0  0  0  0  0  0  0  0  0  0  0  0
   -1.3702   -0.0133   -0.0006 C   0  0  0  0  0  0  0  0  0  0  0  0
    0.7067    1.1985    0.0004 C   0  0  0  0  0  0  0  0  0  0  0  0
    0.7145   -1.2048    0.0012 C   0  0  0  0  0  0  0  0  0  0  0  0
   -3.0917   -0.0214   -0.0018 Cl  0  0  0  0  0  0  0  0  0  0  0  0
    1.5613    2.6922    0.0004 Cl  0  0  0  0  0  0  0  0  0  0  0  0
    1.4413   -2.3585    0.0021 O   0  0  0  0  0  0  0  0  0  0  0  0
   -1.2337    2.1403   -0.0013 H   0  0  0  0  0  0  0  0  0  0  0  0
   -1.2243   -2.1610    0.0002 H   0  0  0  0  0  0  0  0  0  0  0  0
    2.4999   -0.0078    0.0020 H   0  0  0  0  0  0  0  0  0  0  0  0
    0.8372   -3.1201    0.0020 H   0  0  0  0  0  0  0  0  0  0  0  0
  1  4  2  0  0  0  0
  1  5  1  0  0  0  0
  1 10  1  0  0  0  0
  2  4  1  0  0  0  0
  2  6  2  0  0  0  0
  2 11  1  0  0  0  0
  3  5  2  0  0  0  0
  3  6  1  0  0  0  0
  3 12  1  0  0  0  0
  4  7  1  0  0  0  0
  5  8  1  0  0  0  0
  6  9  1  0  0  0  0
  9 13  1  0  0  0  0
M  END
