
 OpenBabel03081821453D

 17 16  0  0  0  0  0  0  0  0999 V2000
    0.9623    0.0679    0.0677 C   0  0  0  0  0  0  0  0  0  0  0  0
    0.4287    1.3985    0.6026 C   0  0  0  0  0  0  0  0  0  0  0  0
    2.4922    0.0447    0.0584 C   0  0  0  0  0  0  0  0  0  0  0  0
   -1.0944    1.4170    0.6100 C   0  0  0  0  0  0  0  0  0  0  0  0
    3.0188   -1.2816   -0.4747 C   0  0  0  0  0  0  0  0  0  0  0  0
   -1.6928    2.9706    1.2345 Cl  0  0  0  0  0  0  0  0  0  0  0  0
    4.7968   -1.2872   -0.4769 Cl  0  0  0  0  0  0  0  0  0  0  0  0
    0.5863   -0.0963   -0.9495 H   0  0  0  0  0  0  0  0  0  0  0  0
    0.5863   -0.7546    0.6884 H   0  0  0  0  0  0  0  0  0  0  0  0
    0.8073    2.2197   -0.0187 H   0  0  0  0  0  0  0  0  0  0  0  0
    0.8073    1.5613    1.6193 H   0  0  0  0  0  0  0  0  0  0  0  0
    2.8659    0.2106    1.0764 H   0  0  0  0  0  0  0  0  0  0  0  0
    2.8659    0.8690   -0.5616 H   0  0  0  0  0  0  0  0  0  0  0  0
   -1.4959    0.6250    1.2492 H   0  0  0  0  0  0  0  0  0  0  0  0
   -1.4959    1.2877   -0.3996 H   0  0  0  0  0  0  0  0  0  0  0  0
    2.6844   -1.4550   -1.5020 H   0  0  0  0  0  0  0  0  0  0  0  0
    2.6844   -2.1177    0.1468 H   0  0  0  0  0  0  0  0  0  0  0  0
  1  2  1  0  0  0  0
  1  3  1  0  0  0  0
  1  8  1  0  0  0  0
  1  9  1  0  0  0  0
  2  4  1  0  0  0  0
  2 10  1  0  0  0  0
  2 11  1  0  0  0  0
  3  5  1  0  0  0  0
  3 12  1  0  0  0  0
  3 13  1  0  0  0  0
  4  6  1  0  0  0  0
  4 14  1  0  0  0  0
  4 15  1  0  0  0  0
  5  7  1  0  0  0  0
  5 16  1  0  0  0  0
  5 17  1  0  0  0  0
M  END
