
 OpenBabel03081821453D

  9  8  0  0  0  0  0  0  0  0999 V2000
    0.9559   -0.0146    0.0828 C   0  0  0  0  0  0  0  0  0  0  0  0
    2.4705   -0.0104    0.0859 C   0  0  0  0  0  0  0  0  0  0  0  0
    2.9519    0.4047    1.3559 O   0  0  0  0  0  0  0  0  0  0  0  0
    0.5689   -0.3483   -0.8841 H   0  0  0  0  0  0  0  0  0  0  0  0
    0.5656    0.9868    0.2919 H   0  0  0  0  0  0  0  0  0  0  0  0
    0.5708   -0.6762    0.8657 H   0  0  0  0  0  0  0  0  0  0  0  0
    2.8627    0.6684   -0.6774 H   0  0  0  0  0  0  0  0  0  0  0  0
    2.8565   -1.0142   -0.1138 H   0  0  0  0  0  0  0  0  0  0  0  0
    2.6117    1.3008    1.5198 H   0  0  0  0  0  0  0  0  0  0  0  0
  1  2  1  0  0  0  0
  1  4  1  0  0  0  0
  1  5  1  0  0  0  0
  1  6  1  0  0  0  0
  2  3  1  0  0  0  0
  2  7  1  0  0  0  0
  2  8  1  0  0  0  0
  3  9  1  0  0  0  0
M  END
