
 OpenBabel03081821453D

 14 14  0  0  0  0  0  0  0  0999 V2000
   -0.7737    1.1715   -0.0474 C   0  0  0  0  0  0  0  0  0  0  0  0
    1.3982    0.0863   -0.0564 C   0  0  0  0  0  0  0  0  0  0  0  0
   -1.3980   -0.0774   -0.0108 C   0  0  0  0  0  0  0  0  0  0  0  0
    0.7694   -1.1614   -0.0197 C   0  0  0  0  0  0  0  0  0  0  0  0
    1.2915    2.5663   -0.1090 C   0  0  0  0  0  0  0  0  0  0  0  0
    0.6228    1.2499   -0.0702 C   0  0  0  0  0  0  0  0  0  0  0  0
   -0.6243   -1.2378    0.0030 C   0  0  0  0  0  0  0  0  0  0  0  0
   -1.3926   -2.7762    0.0481 Cl  0  0  0  0  0  0  0  0  0  0  0  0
    0.6605    3.6155   -0.1224 O   0  0  0  0  0  0  0  0  0  0  0  0
   -1.3756    2.0784   -0.0582 H   0  0  0  0  0  0  0  0  0  0  0  0
    2.4840    0.1354   -0.0738 H   0  0  0  0  0  0  0  0  0  0  0  0
   -2.4833   -0.1369    0.0069 H   0  0  0  0  0  0  0  0  0  0  0  0
    1.3684   -2.0688   -0.0089 H   0  0  0  0  0  0  0  0  0  0  0  0
    2.3942    2.5593   -0.1255 H   0  0  0  0  0  0  0  0  0  0  0  0
  1  3  1  0  0  0  0
  1  6  2  0  0  0  0
  1 10  1  0  0  0  0
  2  4  2  0  0  0  0
  2  6  1  0  0  0  0
  2 11  1  0  0  0  0
  3  7  2  0  0  0  0
  3 12  1  0  0  0  0
  4  7  1  0  0  0  0
  4 13  1  0  0  0  0
  5  6  1  0  0  0  0
  5  9  2  0  0  0  0
  5 14  1  0  0  0  0
  7  8  1  0  0  0  0
M  END
