
 OpenBabel03081821453D

  5  4  0  0  0  0  0  0  0  0999 V2000
    1.0010    0.0639    0.0408 C   0  0  0  0  0  0  0  0  0  0  0  0
    0.3941    0.6472   -1.5181 Cl  0  0  0  0  0  0  0  0  0  0  0  0
    0.3941   -1.5667    0.3748 Cl  0  0  0  0  0  0  0  0  0  0  0  0
    2.7724    0.0867    0.0675 Cl  0  0  0  0  0  0  0  0  0  0  0  0
    0.6367    0.7336    0.8241 H   0  0  0  0  0  0  0  0  0  0  0  0
  1  2  1  0  0  0  0
  1  3  1  0  0  0  0
  1  4  1  0  0  0  0
  1  5  1  0  0  0  0
M  END
