
 OpenBabel03081821453D

  8  7  0  0  0  0  0  0  0  0999 V2000
    0.9151   -0.0163   -0.0197 C   0  0  0  0  0  0  0  0  0  0  0  0
    2.4378   -0.0163   -0.0197 C   0  0  0  0  0  0  0  0  0  0  0  0
    3.0405    1.6085    0.4092 Cl  0  0  0  0  0  0  0  0  0  0  0  0
    3.0405   -1.2002    1.1729 Cl  0  0  0  0  0  0  0  0  0  0  0  0
    3.0405   -0.4572   -1.6413 Cl  0  0  0  0  0  0  0  0  0  0  0  0
    0.5141    0.2515    0.9650 H   0  0  0  0  0  0  0  0  0  0  0  0
    0.5141   -1.0029   -0.2802 H   0  0  0  0  0  0  0  0  0  0  0  0
    0.5141    0.7026   -0.7440 H   0  0  0  0  0  0  0  0  0  0  0  0
  1  2  1  0  0  0  0
  1  6  1  0  0  0  0
  1  7  1  0  0  0  0
  1  8  1  0  0  0  0
  2  3  1  0  0  0  0
  2  4  1  0  0  0  0
  2  5  1  0  0  0  0
M  END
