
 OpenBabel03081821453D

  5  4  0  0  0  0  0  0  0  0999 V2000
    0.9626    0.0737   -0.0069 C   0  0  0  0  0  0  0  0  0  0  0  0
    3.0747    0.0737   -0.0069 I   0  0  0  0  0  0  0  0  0  0  0  0
    0.5688    0.6594   -0.8431 H   0  0  0  0  0  0  0  0  0  0  0  0
    0.5688    0.5050    0.9184 H   0  0  0  0  0  0  0  0  0  0  0  0
    0.5688   -0.9433   -0.0960 H   0  0  0  0  0  0  0  0  0  0  0  0
  1  2  1  0  0  0  0
  1  3  1  0  0  0  0
  1  4  1  0  0  0  0
  1  5  1  0  0  0  0
M  END
