
 OpenBabel03081821453D

  8  7  0  0  0  0  0  0  0  0999 V2000
    0.9227    0.0404    0.0424 C   0  0  0  0  0  0  0  0  0  0  0  0
    2.4335    0.0322    0.0457 C   0  0  0  0  0  0  0  0  0  0  0  0
    3.1058    1.7188   -0.6503 Br  0  0  0  0  0  0  0  0  0  0  0  0
    0.5381   -0.9068    0.4332 H   0  0  0  0  0  0  0  0  0  0  0  0
    0.5269    0.1739   -0.9701 H   0  0  0  0  0  0  0  0  0  0  0  0
    0.5269    0.8491    0.6659 H   0  0  0  0  0  0  0  0  0  0  0  0
    2.8337   -0.7581   -0.5943 H   0  0  0  0  0  0  0  0  0  0  0  0
    2.8337   -0.0768    1.0568 H   0  0  0  0  0  0  0  0  0  0  0  0
  1  2  1  0  0  0  0
  1  4  1  0  0  0  0
  1  5  1  0  0  0  0
  1  6  1  0  0  0  0
  2  3  1  0  0  0  0
  2  7  1  0  0  0  0
  2  8  1  0  0  0  0
M  END
