
 OpenBabel03081821453D

  5  4  0  0  0  0  0  0  0  0999 V2000
    1.0712   -0.0772    0.0173 C   0  0  0  0  0  0  0  0  0  0  0  0
    0.4050    1.0824    1.4158 Br  0  0  0  0  0  0  0  0  0  0  0  0
    2.8326   -0.0817    0.0120 Cl  0  0  0  0  0  0  0  0  0  0  0  0
    0.6979    0.2971   -0.9381 H   0  0  0  0  0  0  0  0  0  0  0  0
    0.6979   -1.0855    0.2084 H   0  0  0  0  0  0  0  0  0  0  0  0
  1  2  1  0  0  0  0
  1  3  1  0  0  0  0
  1  4  1  0  0  0  0
  1  5  1  0  0  0  0
M  END
