
 OpenBabel03081821453D

 11 10  0  0  0  0  0  0  0  0999 V2000
    0.9963    0.1262   -0.0509 C   0  0  0  0  0  0  0  0  0  0  0  0
    3.0693   -1.3530    0.0973 C   0  0  0  0  0  0  0  0  0  0  0  0
    2.5193    0.0684   -0.0073 C   0  0  0  0  0  0  0  0  0  0  0  0
    2.6214   -2.1301    1.6391 Cl  0  0  0  0  0  0  0  0  0  0  0  0
    3.1632    0.8292   -1.5011 Cl  0  0  0  0  0  0  0  0  0  0  0  0
    0.5561   -0.2501    0.8777 H   0  0  0  0  0  0  0  0  0  0  0  0
    0.5967   -0.4702   -0.8785 H   0  0  0  0  0  0  0  0  0  0  0  0
    0.6474    1.1570   -0.1784 H   0  0  0  0  0  0  0  0  0  0  0  0
    4.1631   -1.3539    0.0519 H   0  0  0  0  0  0  0  0  0  0  0  0
    2.6939   -1.9891   -0.7110 H   0  0  0  0  0  0  0  0  0  0  0  0
    2.8847    0.6768    0.8270 H   0  0  0  0  0  0  0  0  0  0  0  0
  1  3  1  0  0  0  0
  1  6  1  0  0  0  0
  1  7  1  0  0  0  0
  1  8  1  0  0  0  0
  2  3  1  0  0  0  0
  2  4  1  0  0  0  0
  2  9  1  0  0  0  0
  2 10  1  0  0  0  0
  3  5  1  0  0  0  0
  3 11  1  0  0  0  0
M  END
