
 OpenBabel03081821453D

  6  5  0  0  0  0  0  0  0  0999 V2000
    0.9657    0.0511   -0.1313 C   0  0  0  0  0  0  0  0  0  0  0  0
    0.2917    0.6191   -1.1346 C   0  0  0  0  0  0  0  0  0  0  0  0
    2.6723   -0.0306    0.0130 Cl  0  0  0  0  0  0  0  0  0  0  0  0
    1.0557    1.3815   -2.4812 Cl  0  0  0  0  0  0  0  0  0  0  0  0
   -1.4388    0.6064   -1.1122 Cl  0  0  0  0  0  0  0  0  0  0  0  0
    0.4805   -0.4256    0.7108 H   0  0  0  0  0  0  0  0  0  0  0  0
  1  2  2  0  0  0  0
  1  3  1  0  0  0  0
  1  6  1  0  0  0  0
  2  4  1  0  0  0  0
  2  5  1  0  0  0  0
M  END
