
 OpenBabel03081821453D

 15 15  0  0  0  0  0  0  0  0999 V2000
   -1.3651   -0.0707    0.0163 C   0  0  0  0  0  0  0  0  0  0  0  0
   -0.5908   -1.2314    0.0211 C   0  0  0  0  0  0  0  0  0  0  0  0
   -0.7471    1.1794   -0.0357 C   0  0  0  0  0  0  0  0  0  0  0  0
    0.8029   -1.1480   -0.0259 C   0  0  0  0  0  0  0  0  0  0  0  0
    1.2927    2.5951   -0.1378 C   0  0  0  0  0  0  0  0  0  0  0  0
    0.6490    1.2671   -0.0830 C   0  0  0  0  0  0  0  0  0  0  0  0
    1.4210    0.1023   -0.0780 C   0  0  0  0  0  0  0  0  0  0  0  0
    0.6387    3.6328   -0.1432 O   0  0  0  0  0  0  0  0  0  0  0  0
    2.7847    0.1844   -0.1240 O   0  0  0  0  0  0  0  0  0  0  0  0
   -2.4499   -0.1377    0.0529 H   0  0  0  0  0  0  0  0  0  0  0  0
   -1.0761   -2.2041    0.0617 H   0  0  0  0  0  0  0  0  0  0  0  0
   -1.3535    2.0831   -0.0394 H   0  0  0  0  0  0  0  0  0  0  0  0
    1.3845   -2.0652   -0.0211 H   0  0  0  0  0  0  0  0  0  0  0  0
    2.3941    2.6186   -0.1740 H   0  0  0  0  0  0  0  0  0  0  0  0
    3.1587   -0.7133   -0.1131 H   0  0  0  0  0  0  0  0  0  0  0  0
  1  2  2  0  0  0  0
  1  3  1  0  0  0  0
  1 10  1  0  0  0  0
  2  4  1  0  0  0  0
  2 11  1  0  0  0  0
  3  6  2  0  0  0  0
  3 12  1  0  0  0  0
  4  7  2  0  0  0  0
  4 13  1  0  0  0  0
  5  6  1  0  0  0  0
  5  8  2  0  0  0  0
  5 14  1  0  0  0  0
  6  7  1  0  0  0  0
  7  9  1  0  0  0  0
  9 15  1  0  0  0  0
M  END
