
 OpenBabel03081821453D

 17 17  0  0  0  0  0  0  0  0999 V2000
    0.9324   -0.0334    0.1901 C   0  0  0  0  0  0  0  0  0  0  0  0
    4.3893    3.6100   -0.3214 C   0  0  0  0  0  0  0  0  0  0  0  0
    3.0331    3.6306   -0.0006 C   0  0  0  0  0  0  0  0  0  0  0  0
    5.0258    2.3958   -0.5716 C   0  0  0  0  0  0  0  0  0  0  0  0
    2.3064    2.4372    0.0718 C   0  0  0  0  0  0  0  0  0  0  0  0
    4.2971    1.2073   -0.4984 C   0  0  0  0  0  0  0  0  0  0  0  0
    2.9319    1.2120   -0.1768 C   0  0  0  0  0  0  0  0  0  0  0  0
    4.9222    0.0129   -0.7443 O   0  0  0  0  0  0  0  0  0  0  0  0
    2.3148   -0.0104   -0.1327 O   0  0  0  0  0  0  0  0  0  0  0  0
    0.6038   -1.0772    0.1809 H   0  0  0  0  0  0  0  0  0  0  0  0
    0.3426    0.5068   -0.5578 H   0  0  0  0  0  0  0  0  0  0  0  0
    0.7544    0.3617    1.1957 H   0  0  0  0  0  0  0  0  0  0  0  0
    4.9491    4.5402   -0.3762 H   0  0  0  0  0  0  0  0  0  0  0  0
    2.5368    4.5781    0.1946 H   0  0  0  0  0  0  0  0  0  0  0  0
    6.0821    2.3926   -0.8204 H   0  0  0  0  0  0  0  0  0  0  0  0
    1.2535    2.4995    0.3247 H   0  0  0  0  0  0  0  0  0  0  0  0
    5.8542    0.1811   -0.9497 H   0  0  0  0  0  0  0  0  0  0  0  0
  1  9  1  0  0  0  0
  1 10  1  0  0  0  0
  1 11  1  0  0  0  0
  1 12  1  0  0  0  0
  2  3  2  0  0  0  0
  2  4  1  0  0  0  0
  2 13  1  0  0  0  0
  3  5  1  0  0  0  0
  3 14  1  0  0  0  0
  4  6  2  0  0  0  0
  4 15  1  0  0  0  0
  5  7  2  0  0  0  0
  5 16  1  0  0  0  0
  6  7  1  0  0  0  0
  6  8  1  0  0  0  0
  7  9  1  0  0  0  0
  8 17  1  0  0  0  0
M  END
