
 OpenBabel03081821453D

 19 20  0  0  0  0  0  0  0  0999 V2000
    2.4295    0.7325   -0.0175 C   0  0  0  0  0  0  0  0  0  0  0  0
    2.4670   -0.6568    0.0262 C   0  0  0  0  0  0  0  0  0  0  0  0
   -2.4421    0.6283   -0.0042 C   0  0  0  0  0  0  0  0  0  0  0  0
    1.2016    1.3956   -0.0359 C   0  0  0  0  0  0  0  0  0  0  0  0
   -1.2434    1.3431   -0.0292 C   0  0  0  0  0  0  0  0  0  0  0  0
    1.2759   -1.3840    0.0516 C   0  0  0  0  0  0  0  0  0  0  0  0
   -2.4232   -0.7629    0.0397 C   0  0  0  0  0  0  0  0  0  0  0  0
   -0.0061    0.6779   -0.0108 C   0  0  0  0  0  0  0  0  0  0  0  0
    0.0237   -0.7359    0.0338 C   0  0  0  0  0  0  0  0  0  0  0  0
   -1.2006   -1.4351    0.0583 C   0  0  0  0  0  0  0  0  0  0  0  0
   -1.1869   -2.8061    0.1016 O   0  0  0  0  0  0  0  0  0  0  0  0
    3.3550    1.3016   -0.0374 H   0  0  0  0  0  0  0  0  0  0  0  0
    3.4202   -1.1783    0.0407 H   0  0  0  0  0  0  0  0  0  0  0  0
   -3.3898    1.1604   -0.0190 H   0  0  0  0  0  0  0  0  0  0  0  0
    1.1942    2.4828   -0.0701 H   0  0  0  0  0  0  0  0  0  0  0  0
   -1.2810    2.4299   -0.0634 H   0  0  0  0  0  0  0  0  0  0  0  0
    1.3218   -2.4707    0.0858 H   0  0  0  0  0  0  0  0  0  0  0  0
   -3.3639   -1.3039    0.0587 H   0  0  0  0  0  0  0  0  0  0  0  0
   -2.1027   -3.1270    0.1137 H   0  0  0  0  0  0  0  0  0  0  0  0
  1  2  2  0  0  0  0
  1  4  1  0  0  0  0
  1 12  1  0  0  0  0
  2  6  1  0  0  0  0
  2 13  1  0  0  0  0
  3  5  2  0  0  0  0
  3  7  1  0  0  0  0
  3 14  1  0  0  0  0
  4  8  2  0  0  0  0
  4 15  1  0  0  0  0
  5  8  1  0  0  0  0
  5 16  1  0  0  0  0
  6  9  2  0  0  0  0
  6 17  1  0  0  0  0
  7 10  2  0  0  0  0
  7 18  1  0  0  0  0
  8  9  1  0  0  0  0
  9 10  1  0  0  0  0
 10 11  1  0  0  0  0
 11 19  1  0  0  0  0
M  END
