
 OpenBabel03081821453D

 13 13  0  0  0  0  0  0  0  0999 V2000
   -1.1713   -0.6886    0.0348 C   0  0  0  0  0  0  0  0  0  0  0  0
   -1.1667    0.7049   -0.0444 C   0  0  0  0  0  0  0  0  0  0  0  0
    0.0357   -1.3984    0.0621 C   0  0  0  0  0  0  0  0  0  0  0  0
    0.0464    1.3885   -0.0963 C   0  0  0  0  0  0  0  0  0  0  0  0
    1.2587   -0.7135    0.0100 C   0  0  0  0  0  0  0  0  0  0  0  0
    1.2572    0.6865   -0.0695 C   0  0  0  0  0  0  0  0  0  0  0  0
   -0.0625   -3.1221    0.1610 Cl  0  0  0  0  0  0  0  0  0  0  0  0
    0.0358    3.1108   -0.1940 Cl  0  0  0  0  0  0  0  0  0  0  0  0
    2.7677   -1.5661    0.0421 Cl  0  0  0  0  0  0  0  0  0  0  0  0
    2.4501    1.3661   -0.1209 O   0  0  0  0  0  0  0  0  0  0  0  0
   -2.1207   -1.2190    0.0752 H   0  0  0  0  0  0  0  0  0  0  0  0
   -2.1093    1.2470   -0.0650 H   0  0  0  0  0  0  0  0  0  0  0  0
    2.2541    2.3202   -0.1730 H   0  0  0  0  0  0  0  0  0  0  0  0
  1  2  2  0  0  0  0
  1  3  1  0  0  0  0
  1 11  1  0  0  0  0
  2  4  1  0  0  0  0
  2 12  1  0  0  0  0
  3  5  2  0  0  0  0
  3  7  1  0  0  0  0
  4  6  2  0  0  0  0
  4  8  1  0  0  0  0
  5  6  1  0  0  0  0
  5  9  1  0  0  0  0
  6 10  1  0  0  0  0
 10 13  1  0  0  0  0
M  END
