
 OpenBabel03081821453D

 13 13  0  0  0  0  0  0  0  0999 V2000
   -0.7582    1.1750   -0.0251 C   0  0  0  0  0  0  0  0  0  0  0  0
    0.7863   -1.1619   -0.0470 C   0  0  0  0  0  0  0  0  0  0  0  0
   -1.3828   -0.0750   -0.0245 C   0  0  0  0  0  0  0  0  0  0  0  0
   -0.6105   -1.2441   -0.0355 C   0  0  0  0  0  0  0  0  0  0  0  0
    0.6347    1.2562   -0.0366 C   0  0  0  0  0  0  0  0  0  0  0  0
    1.4044    0.0881   -0.0475 C   0  0  0  0  0  0  0  0  0  0  0  0
   -3.1102   -0.1089   -0.0100 Cl  0  0  0  0  0  0  0  0  0  0  0  0
   -1.3186   -2.8205   -0.0354 Cl  0  0  0  0  0  0  0  0  0  0  0  0
    1.3692    2.8172   -0.0369 Cl  0  0  0  0  0  0  0  0  0  0  0  0
    2.7690    0.1723   -0.0588 O   0  0  0  0  0  0  0  0  0  0  0  0
   -1.3546    2.0841   -0.0166 H   0  0  0  0  0  0  0  0  0  0  0  0
    1.3773   -2.0733   -0.0555 H   0  0  0  0  0  0  0  0  0  0  0  0
    3.1604   -0.7168   -0.0655 H   0  0  0  0  0  0  0  0  0  0  0  0
  1  3  2  0  0  0  0
  1  5  1  0  0  0  0
  1 11  1  0  0  0  0
  2  4  2  0  0  0  0
  2  6  1  0  0  0  0
  2 12  1  0  0  0  0
  3  4  1  0  0  0  0
  3  7  1  0  0  0  0
  4  8  1  0  0  0  0
  5  6  2  0  0  0  0
  5  9  1  0  0  0  0
  6 10  1  0  0  0  0
 10 13  1  0  0  0  0
M  END
