Chlordiazepoxide
 OpenBabel04201808233D
Structure written by MMmdl.
 35 37  0  0  0  0  0  0  0  0999 V2000
   -0.0915    2.0864   -0.0352 C   0  0  0  0  0  0  0  0  0  0  0  0
   -0.1998    0.6829    0.0453 C   0  0  0  0  0  0  0  0  0  0  0  0
    0.9986   -0.2007    0.0733 C   0  0  0  0  0  0  0  0  0  0  0  0
    2.0635    0.1345    0.7868 N   0  3  0  0  0  0  0  0  0  0  0  0
    2.1224    1.3680    1.5942 C   0  0  0  0  0  0  0  0  0  0  0  0
    2.1404    2.5130    0.6061 C   0  0  0  0  0  0  0  0  0  0  0  0
    1.1129    2.8066   -0.1397 N   0  0  0  0  0  0  0  0  0  0  0  0
   -1.2698    2.8452   -0.0711 C   0  0  0  0  0  0  0  0  0  0  0  0
   -2.5269    2.2389   -0.0088 C   0  0  0  0  0  0  0  0  0  0  0  0
   -2.6178    0.8550    0.0837 C   0  0  0  0  0  0  0  0  0  0  0  0
   -1.4646    0.0738    0.1107 C   0  0  0  0  0  0  0  0  0  0  0  0
    0.9877   -1.4561   -0.7121 C   0  0  0  0  0  0  0  0  0  0  0  0
    0.4821   -1.4376   -2.0153 C   0  0  0  0  0  0  0  0  0  0  0  0
    0.4282   -2.6221   -2.7511 C   0  0  0  0  0  0  0  0  0  0  0  0
    0.8709   -3.8183   -2.1842 C   0  0  0  0  0  0  0  0  0  0  0  0
    1.3679   -3.8346   -0.8800 C   0  0  0  0  0  0  0  0  0  0  0  0
    1.4252   -2.6535   -0.1389 C   0  0  0  0  0  0  0  0  0  0  0  0
    3.1096   -0.6188    0.8050 O   0  5  0  0  0  0  0  0  0  0  0  0
   -4.1640    0.1031    0.1654 Cl  0  0  0  0  0  0  0  0  0  0  0  0
    3.2989    3.2485    0.5155 N   0  0  0  0  0  0  0  0  0  0  0  0
    3.4607    4.4223   -0.3099 C   0  0  0  0  0  0  0  0  0  0  0  0
    3.0349    1.3505    2.1980 H   0  0  0  0  0  0  0  0  0  0  0  0
    1.2597    1.4116    2.2643 H   0  0  0  0  0  0  0  0  0  0  0  0
   -1.2082    3.9296   -0.1494 H   0  0  0  0  0  0  0  0  0  0  0  0
   -3.4223    2.8553   -0.0346 H   0  0  0  0  0  0  0  0  0  0  0  0
   -1.5582   -1.0061    0.1922 H   0  0  0  0  0  0  0  0  0  0  0  0
    0.1331   -0.5109   -2.4656 H   0  0  0  0  0  0  0  0  0  0  0  0
    0.0389   -2.6134   -3.7676 H   0  0  0  0  0  0  0  0  0  0  0  0
    0.8267   -4.7413   -2.7602 H   0  0  0  0  0  0  0  0  0  0  0  0
    1.7086   -4.7700   -0.4395 H   0  0  0  0  0  0  0  0  0  0  0  0
    1.8052   -2.6766    0.8800 H   0  0  0  0  0  0  0  0  0  0  0  0
    4.1173    2.9724    1.0584 H   0  0  0  0  0  0  0  0  0  0  0  0
    4.4746    4.8182   -0.1994 H   0  0  0  0  0  0  0  0  0  0  0  0
    2.7554    5.2047   -0.0134 H   0  0  0  0  0  0  0  0  0  0  0  0
    3.3033    4.1784   -1.3650 H   0  0  0  0  0  0  0  0  0  0  0  0
  1  2  2  0  0  0  0
  1  7  1  0  0  0  0
  1  8  1  0  0  0  0
  2  3  1  0  0  0  0
  2 11  1  0  0  0  0
  3  4  2  0  0  0  0
  3 12  1  0  0  0  0
  4  5  1  0  0  0  0
  4 18  1  0  0  0  0
  5  6  1  0  0  0  0
  5 22  1  0  0  0  0
  5 23  1  0  0  0  0
  6  7  2  0  0  0  0
  6 20  1  0  0  0  0
  8  9  2  0  0  0  0
  8 24  1  0  0  0  0
  9 10  1  0  0  0  0
  9 25  1  0  0  0  0
 10 11  2  0  0  0  0
 10 19  1  0  0  0  0
 11 26  1  0  0  0  0
 12 13  2  0  0  0  0
 12 17  1  0  0  0  0
 13 14  1  0  0  0  0
 13 27  1  0  0  0  0
 14 15  2  0  0  0  0
 14 28  1  0  0  0  0
 15 16  1  0  0  0  0
 15 29  1  0  0  0  0
 16 17  2  0  0  0  0
 16 30  1  0  0  0  0
 17 31  1  0  0  0  0
 20 21  1  0  0  0  0
 20 32  1  0  0  0  0
 21 33  1  0  0  0  0
 21 34  1  0  0  0  0
 21 35  1  0  0  0  0
M  CHG  2   4   1  18  -1
M  END
