Cloxazolam
 OpenBabel04201808233D
Structure written by MMmdl.
 37 40  0  0  0  0  0  0  0  0999 V2000
   -0.7156    1.3626   -0.7883 C   0  0  0  0  0  0  0  0  0  0  0  0
   -0.6368   -0.0460   -0.7893 C   0  0  0  0  0  0  0  0  0  0  0  0
    0.7218   -0.7786   -0.6943 C   0  0  2  0  0  0  0  0  0  0  0  0
    1.5480   -0.6038   -1.9116 N   0  0  2  0  0  0  0  0  0  0  0  0
    1.3544    0.6259   -2.6835 C   0  0  0  0  0  0  0  0  0  0  0  0
    1.4725    1.8816   -1.8133 C   0  0  0  0  0  0  0  0  0  0  0  0
    0.3976    2.1861   -1.0127 N   0  0  0  0  0  0  0  0  0  0  0  0
   -1.9438    2.0092   -0.5999 C   0  0  0  0  0  0  0  0  0  0  0  0
   -3.1252    1.2727   -0.5313 C   0  0  0  0  0  0  0  0  0  0  0  0
   -3.0775   -0.1110   -0.6435 C   0  0  0  0  0  0  0  0  0  0  0  0
   -1.8525   -0.7670   -0.7715 C   0  0  0  0  0  0  0  0  0  0  0  0
    0.4794   -2.2098   -0.5826 O   0  0  0  0  0  0  0  0  0  0  0  0
    1.1930   -2.8475   -1.6497 C   0  0  0  0  0  0  0  0  0  0  0  0
    1.2906   -1.7917   -2.7201 C   0  0  0  0  0  0  0  0  0  0  0  0
   -4.5350   -1.0248   -0.5875 Cl  0  0  0  0  0  0  0  0  0  0  0  0
    2.4489    2.6348   -1.8753 O   0  0  0  0  0  0  0  0  0  0  0  0
    1.5138   -0.4466    0.6018 C   0  0  0  0  0  0  0  0  0  0  0  0
    0.9815   -0.5919    1.9031 C   0  0  0  0  0  0  0  0  0  0  0  0
    1.7436   -0.2715    3.0396 C   0  0  0  0  0  0  0  0  0  0  0  0
    3.0533    0.1803    2.9180 C   0  0  0  0  0  0  0  0  0  0  0  0
    3.6156    0.3026    1.6574 C   0  0  0  0  0  0  0  0  0  0  0  0
    2.8620   -0.0127    0.5225 C   0  0  0  0  0  0  0  0  0  0  0  0
   -0.6027   -1.2030    2.2389 Cl  0  0  0  0  0  0  0  0  0  0  0  0
    0.3963    0.6501   -3.2183 H   0  0  0  0  0  0  0  0  0  0  0  0
    2.1379    0.6920   -3.4486 H   0  0  0  0  0  0  0  0  0  0  0  0
    0.3723    3.1408   -0.6642 H   0  0  0  0  0  0  0  0  0  0  0  0
   -2.0003    3.0959   -0.5617 H   0  0  0  0  0  0  0  0  0  0  0  0
   -4.0749    1.7890   -0.4136 H   0  0  0  0  0  0  0  0  0  0  0  0
   -1.8471   -1.8550   -0.8029 H   0  0  0  0  0  0  0  0  0  0  0  0
    0.6446   -3.7349   -1.9764 H   0  0  0  0  0  0  0  0  0  0  0  0
    2.1773   -3.1505   -1.2750 H   0  0  0  0  0  0  0  0  0  0  0  0
    2.0892   -2.0024   -3.4371 H   0  0  0  0  0  0  0  0  0  0  0  0
    0.3365   -1.7146   -3.2563 H   0  0  0  0  0  0  0  0  0  0  0  0
    1.3187   -0.3830    4.0362 H   0  0  0  0  0  0  0  0  0  0  0  0
    3.6344    0.4227    3.8054 H   0  0  0  0  0  0  0  0  0  0  0  0
    4.6451    0.6405    1.5491 H   0  0  0  0  0  0  0  0  0  0  0  0
    3.3628    0.0880   -0.4399 H   0  0  0  0  0  0  0  0  0  0  0  0
  1  2  2  0  0  0  0
  1  7  1  0  0  0  0
  1  8  1  0  0  0  0
  2  3  1  0  0  0  0
  2 11  1  0  0  0  0
  3  4  1  0  0  0  0
  3 12  1  0  0  0  0
  3 17  1  1  0  0  0
  4  5  1  6  0  0  0
  4 14  1  0  0  0  0
  5  6  1  0  0  0  0
  5 24  1  0  0  0  0
  5 25  1  0  0  0  0
  6  7  1  0  0  0  0
  6 16  2  0  0  0  0
  7 26  1  0  0  0  0
  8  9  2  0  0  0  0
  8 27  1  0  0  0  0
  9 10  1  0  0  0  0
  9 28  1  0  0  0  0
 10 11  2  0  0  0  0
 10 15  1  0  0  0  0
 11 29  1  0  0  0  0
 12 13  1  0  0  0  0
 13 14  1  0  0  0  0
 13 30  1  0  0  0  0
 13 31  1  0  0  0  0
 14 32  1  0  0  0  0
 14 33  1  0  0  0  0
 17 18  2  0  0  0  0
 17 22  1  0  0  0  0
 18 19  1  0  0  0  0
 18 23  1  0  0  0  0
 19 20  2  0  0  0  0
 19 34  1  0  0  0  0
 20 21  1  0  0  0  0
 20 35  1  0  0  0  0
 21 22  2  0  0  0  0
 21 36  1  0  0  0  0
 22 37  1  0  0  0  0
M  END
