Ro03-7355
 OpenBabel04201808233D
Structure written by MMmdl.
 57 58  0  0  0  0  0  0  0  0999 V2000
   -1.6389    3.1051    3.5369 C   0  0  0  0  0  0  0  0  0  0  0  0
   -2.5214    2.1586    4.0505 C   0  0  0  0  0  0  0  0  0  0  0  0
   -2.0381    0.9929    4.6349 C   0  0  0  0  0  0  0  0  0  0  0  0
   -0.6536    0.7715    4.6981 C   0  0  0  0  0  0  0  0  0  0  0  0
    0.2595    1.7253    4.1955 C   0  0  0  0  0  0  0  0  0  0  0  0
   -0.2588    2.8931    3.6163 C   0  0  0  0  0  0  0  0  0  0  0  0
   -0.2282   -0.5347    5.2517 C   0  0  0  0  0  0  0  0  0  0  0  0
    3.1114    1.4080    0.9374 N   0  0  0  0  0  0  0  0  0  0  0  0
    2.0988    1.8997    1.8653 C   0  0  0  0  0  0  0  0  0  0  0  0
    2.6069    1.8010    3.3185 C   0  0  0  0  0  0  0  0  0  0  0  0
    1.6734    1.6002    4.3408 N   0  0  0  0  0  0  0  0  0  0  0  0
    3.8226    1.8633    3.5577 O   0  0  0  0  0  0  0  0  0  0  0  0
   -0.5205   -0.8027    6.4172 O   0  0  0  0  0  0  0  0  0  0  0  0
    0.5206   -1.5101    4.4089 C   0  0  0  0  0  0  0  0  0  0  0  0
    0.4690   -1.4705    3.0095 C   0  0  0  0  0  0  0  0  0  0  0  0
    1.1929   -2.3969    2.2552 C   0  0  0  0  0  0  0  0  0  0  0  0
    1.9566   -3.3748    2.8913 C   0  0  0  0  0  0  0  0  0  0  0  0
    1.9972   -3.4317    4.2833 C   0  0  0  0  0  0  0  0  0  0  0  0
    1.2802   -2.5035    5.0421 C   0  0  0  0  0  0  0  0  0  0  0  0
   -4.2181    2.4343    3.9642 Cl  0  0  0  0  0  0  0  0  0  0  0  0
    2.1928    1.3423    5.6825 C   0  0  0  0  0  0  0  0  0  0  0  0
    3.1233    1.4316   -0.4245 C   0  0  0  0  0  0  0  0  0  0  0  0
    4.0558    0.8507   -0.9999 O   0  0  0  0  0  0  0  0  0  0  0  0
    2.0695    2.2144   -1.2464 C   0  0  1  0  0  0  0  0  0  0  0  0
    0.6887    1.9028   -0.8255 N   0  0  0  0  0  0  0  0  0  0  0  0
    2.3929    3.7179   -1.2375 C   0  0  0  0  0  0  0  0  0  0  0  0
    1.5473    4.5831   -2.1822 C   0  0  0  0  0  0  0  0  0  0  0  0
    1.7396    4.2389   -3.6622 C   0  0  0  0  0  0  0  0  0  0  0  0
    1.0291    5.2518   -4.5605 C   0  0  0  0  0  0  0  0  0  0  0  0
    1.2239    4.9095   -5.9700 N   0  0  0  0  0  0  0  0  0  0  0  0
   -2.0132    4.0242    3.0903 H   0  0  0  0  0  0  0  0  0  0  0  0
   -2.7298    0.2501    5.0266 H   0  0  0  0  0  0  0  0  0  0  0  0
    0.3986    3.6857    3.2659 H   0  0  0  0  0  0  0  0  0  0  0  0
    3.8841    0.9001    1.3572 H   0  0  0  0  0  0  0  0  0  0  0  0
    1.2110    1.2804    1.7270 H   0  0  0  0  0  0  0  0  0  0  0  0
    1.8814    2.9443    1.6340 H   0  0  0  0  0  0  0  0  0  0  0  0
   -0.1364   -0.7377    2.4828 H   0  0  0  0  0  0  0  0  0  0  0  0
    1.1565   -2.3584    1.1679 H   0  0  0  0  0  0  0  0  0  0  0  0
    2.5174   -4.0962    2.3004 H   0  0  0  0  0  0  0  0  0  0  0  0
    2.5888   -4.1993    4.7793 H   0  0  0  0  0  0  0  0  0  0  0  0
    1.3248   -2.5579    6.1285 H   0  0  0  0  0  0  0  0  0  0  0  0
    2.6181    0.3347    5.7089 H   0  0  0  0  0  0  0  0  0  0  0  0
    1.4209    1.4505    6.4491 H   0  0  0  0  0  0  0  0  0  0  0  0
    2.9929    2.0555    5.9061 H   0  0  0  0  0  0  0  0  0  0  0  0
    2.1751    1.8301   -2.2679 H   0  0  0  0  0  0  0  0  0  0  0  0
    0.0665    2.1280   -1.6079 H   0  0  0  0  0  0  0  0  0  0  0  0
    0.4008    2.5752   -0.1116 H   0  0  0  0  0  0  0  0  0  0  0  0
    3.4526    3.8564   -1.4912 H   0  0  0  0  0  0  0  0  0  0  0  0
    2.2813    4.1185   -0.2237 H   0  0  0  0  0  0  0  0  0  0  0  0
    1.8299    5.6311   -2.0195 H   0  0  0  0  0  0  0  0  0  0  0  0
    0.4860    4.5051   -1.9177 H   0  0  0  0  0  0  0  0  0  0  0  0
    1.3465    3.2352   -3.8633 H   0  0  0  0  0  0  0  0  0  0  0  0
    2.8109    4.2231   -3.8995 H   0  0  0  0  0  0  0  0  0  0  0  0
    1.4284    6.2569   -4.3853 H   0  0  0  0  0  0  0  0  0  0  0  0
   -0.0431    5.2730   -4.3354 H   0  0  0  0  0  0  0  0  0  0  0  0
    0.6666    5.5625   -6.5357 H   0  0  0  0  0  0  0  0  0  0  0  0
    0.7763    4.0022   -6.1488 H   0  0  0  0  0  0  0  0  0  0  0  0
  1  2  2  0  0  0  0
  1  6  1  0  0  0  0
  1 31  1  0  0  0  0
  2  3  1  0  0  0  0
  2 20  1  0  0  0  0
  3  4  2  0  0  0  0
  3 32  1  0  0  0  0
  4  5  1  0  0  0  0
  4  7  1  0  0  0  0
  5  6  2  0  0  0  0
  5 11  1  0  0  0  0
  6 33  1  0  0  0  0
  7 13  2  0  0  0  0
  7 14  1  0  0  0  0
  8  9  1  0  0  0  0
  8 22  1  0  0  0  0
  8 34  1  0  0  0  0
  9 10  1  0  0  0  0
  9 35  1  0  0  0  0
  9 36  1  0  0  0  0
 10 11  1  0  0  0  0
 10 12  2  0  0  0  0
 11 21  1  0  0  0  0
 14 15  2  0  0  0  0
 14 19  1  0  0  0  0
 15 16  1  0  0  0  0
 15 37  1  0  0  0  0
 16 17  2  0  0  0  0
 16 38  1  0  0  0  0
 17 18  1  0  0  0  0
 17 39  1  0  0  0  0
 18 19  2  0  0  0  0
 18 40  1  0  0  0  0
 19 41  1  0  0  0  0
 21 42  1  0  0  0  0
 21 43  1  0  0  0  0
 21 44  1  0  0  0  0
 22 23  2  0  0  0  0
 22 24  1  0  0  0  0
 24 25  1  0  0  0  0
 24 26  1  0  0  0  0
 24 45  1  6  0  0  0
 25 46  1  0  0  0  0
 25 47  1  0  0  0  0
 26 27  1  0  0  0  0
 26 48  1  0  0  0  0
 26 49  1  0  0  0  0
 27 28  1  0  0  0  0
 27 50  1  0  0  0  0
 27 51  1  0  0  0  0
 28 29  1  0  0  0  0
 28 52  1  0  0  0  0
 28 53  1  0  0  0  0
 29 30  1  0  0  0  0
 29 54  1  0  0  0  0
 29 55  1  0  0  0  0
 30 56  1  0  0  0  0
 30 57  1  0  0  0  0
M  END
