Ro31-0214
 OpenBabel04201808233D
Structure written by MMmdl.
 46 48  0  0  0  0  0  0  0  0999 V2000
   -1.6350    2.2239    5.1479 C   0  0  0  0  0  0  0  0  0  0  0  0
   -1.3942    1.2478    6.1090 C   0  0  0  0  0  0  0  0  0  0  0  0
   -0.3447    0.3521    5.9465 C   0  0  0  0  0  0  0  0  0  0  0  0
    0.4660    0.4368    4.8034 C   0  0  0  0  0  0  0  0  0  0  0  0
    0.2574    1.4341    3.8244 C   0  0  0  0  0  0  0  0  0  0  0  0
   -0.8129    2.3169    4.0167 C   0  0  0  0  0  0  0  0  0  0  0  0
    1.5253   -0.5901    4.6802 C   0  0  0  0  0  0  0  0  0  0  0  0
    1.7939    1.2967   -0.4858 N   0  0  0  0  0  0  0  0  0  0  0  0
    2.1721    2.1881    0.6048 C   0  0  0  0  0  0  0  0  0  0  0  0
    0.9993    2.3375    1.5880 C   0  0  0  0  0  0  0  0  0  0  0  0
    1.1378    1.5425    2.7165 N   0  0  0  0  0  0  0  0  0  0  0  0
    0.0163    3.0232    1.3041 O   0  0  0  0  0  0  0  0  0  0  0  0
    2.4220   -0.6090    5.5247 O   0  0  0  0  0  0  0  0  0  0  0  0
    1.4863   -1.5738    3.5496 C   0  0  0  0  0  0  0  0  0  0  0  0
    0.3131   -1.8604    2.8595 C   0  0  0  0  0  0  0  0  0  0  0  0
    0.3711   -2.7719    1.8082 C   0  0  0  0  0  0  0  0  0  0  0  0
    1.5844   -3.3680    1.4835 C   0  0  0  0  0  0  0  0  0  0  0  0
    2.7026   -3.0334    2.2277 C   0  0  0  0  0  0  0  0  0  0  0  0
    2.6842   -2.1513    3.2540 N   0  0  0  0  0  0  0  0  0  0  0  0
   -2.5011    1.1371    7.6369 Br  0  0  0  0  0  0  0  0  0  0  0  0
    1.5257    1.5981   -1.7898 C   0  0  0  0  0  0  0  0  0  0  0  0
    1.6953    3.0512   -2.2833 C   0  0  1  0  0  0  0  0  0  0  0  0
    1.1560    0.6908   -2.5462 O   0  0  0  0  0  0  0  0  0  0  0  0
    1.8303    3.0795   -3.7721 N   0  0  0  0  0  0  0  0  0  0  0  0
    1.1447    4.3077   -4.1943 C   0  0  0  0  0  0  0  0  0  0  0  0
   -0.0603    4.3792   -3.2837 C   0  0  0  0  0  0  0  0  0  0  0  0
    0.4800    3.9117   -1.9437 C   0  0  0  0  0  0  0  0  0  0  0  0
   -2.4536    2.9314    5.2672 H   0  0  0  0  0  0  0  0  0  0  0  0
   -0.1577   -0.4182    6.6914 H   0  0  0  0  0  0  0  0  0  0  0  0
   -1.0298    3.1182    3.3166 H   0  0  0  0  0  0  0  0  0  0  0  0
    1.6629    0.3198   -0.2420 H   0  0  0  0  0  0  0  0  0  0  0  0
    2.4437    3.1818    0.2444 H   0  0  0  0  0  0  0  0  0  0  0  0
    3.0458    1.7504    1.0966 H   0  0  0  0  0  0  0  0  0  0  0  0
    1.9750    0.9671    2.7355 H   0  0  0  0  0  0  0  0  0  0  0  0
   -0.6368   -1.4047    3.1178 H   0  0  0  0  0  0  0  0  0  0  0  0
   -0.5275   -3.0179    1.2463 H   0  0  0  0  0  0  0  0  0  0  0  0
    1.6568   -4.0821    0.6687 H   0  0  0  0  0  0  0  0  0  0  0  0
    3.6689   -3.4815    2.0061 H   0  0  0  0  0  0  0  0  0  0  0  0
    2.6121    3.4748   -1.8617 H   0  0  0  0  0  0  0  0  0  0  0  0
    1.2820    2.2815   -4.1240 H   0  0  0  0  0  0  0  0  0  0  0  0
    0.8647    4.2675   -5.2509 H   0  0  0  0  0  0  0  0  0  0  0  0
    1.8049    5.1699   -4.0459 H   0  0  0  0  0  0  0  0  0  0  0  0
   -0.8424    3.6929   -3.6309 H   0  0  0  0  0  0  0  0  0  0  0  0
   -0.4881    5.3845   -3.2302 H   0  0  0  0  0  0  0  0  0  0  0  0
    0.7960    4.7789   -1.3518 H   0  0  0  0  0  0  0  0  0  0  0  0
   -0.2946    3.3813   -1.3814 H   0  0  0  0  0  0  0  0  0  0  0  0
  1  2  2  0  0  0  0
  1  6  1  0  0  0  0
  1 28  1  0  0  0  0
  2  3  1  0  0  0  0
  2 20  1  0  0  0  0
  3  4  2  0  0  0  0
  3 29  1  0  0  0  0
  4  5  1  0  0  0  0
  4  7  1  0  0  0  0
  5  6  2  0  0  0  0
  5 11  1  0  0  0  0
  6 30  1  0  0  0  0
  7 13  2  0  0  0  0
  7 14  1  0  0  0  0
  8  9  1  0  0  0  0
  8 21  1  0  0  0  0
  8 31  1  0  0  0  0
  9 10  1  0  0  0  0
  9 32  1  0  0  0  0
  9 33  1  0  0  0  0
 10 11  1  0  0  0  0
 10 12  2  0  0  0  0
 11 34  1  0  0  0  0
 14 15  2  0  0  0  0
 14 19  1  0  0  0  0
 15 16  1  0  0  0  0
 15 35  1  0  0  0  0
 16 17  2  0  0  0  0
 16 36  1  0  0  0  0
 17 18  1  0  0  0  0
 17 37  1  0  0  0  0
 18 19  2  0  0  0  0
 18 38  1  0  0  0  0
 21 22  1  0  0  0  0
 21 23  2  0  0  0  0
 22 24  1  0  0  0  0
 22 27  1  0  0  0  0
 22 39  1  1  0  0  0
 24 25  1  0  0  0  0
 24 40  1  0  0  0  0
 25 26  1  0  0  0  0
 25 41  1  0  0  0  0
 25 42  1  0  0  0  0
 26 27  1  0  0  0  0
 26 43  1  0  0  0  0
 26 44  1  0  0  0  0
 27 45  1  0  0  0  0
 27 46  1  0  0  0  0
M  END
