U-35005
 OpenBabel04201808233D
Structure written by MMmdl.
 35 38  0  0  0  0  0  0  0  0999 V2000
    0.2568    2.1803    0.0672 C   0  0  0  0  0  0  0  0  0  0  0  0
    0.0533    0.7869    0.1533 C   0  0  0  0  0  0  0  0  0  0  0  0
    1.1723   -0.2161    0.1904 C   0  0  0  0  0  0  0  0  0  0  0  0
    2.2380   -0.1390    0.9208 N   0  0  0  0  0  0  0  0  0  0  0  0
    2.4096    1.0239    1.7885 C   0  0  0  0  0  0  0  0  0  0  0  0
    2.5727    2.2467    0.9688 C   0  0  0  0  0  0  0  0  0  0  0  0
    1.5541    2.7432    0.1810 N   0  0  0  0  0  0  0  0  0  0  0  0
   -0.8510    3.0305   -0.0834 C   0  0  0  0  0  0  0  0  0  0  0  0
   -2.1447    2.5084   -0.1390 C   0  0  0  0  0  0  0  0  0  0  0  0
   -2.3495    1.1375   -0.0377 C   0  0  0  0  0  0  0  0  0  0  0  0
   -1.2589    0.2811    0.1086 C   0  0  0  0  0  0  0  0  0  0  0  0
    1.0521   -1.4228   -0.6798 C   0  0  0  0  0  0  0  0  0  0  0  0
    3.6195    3.0459    0.9185 N   0  0  0  0  0  0  0  0  0  0  0  0
    3.3159    4.0773    0.0770 N   0  0  0  0  0  0  0  0  0  0  0  0
    2.0898    3.8938   -0.3815 C   0  0  0  0  0  0  0  0  0  0  0  0
    1.4508    4.7334   -1.4256 C   0  0  0  0  0  0  0  0  0  0  0  0
    1.4949   -2.6447   -0.1522 C   0  0  0  0  0  0  0  0  0  0  0  0
    1.3946   -3.8112   -0.9109 C   0  0  0  0  0  0  0  0  0  0  0  0
    0.8638   -3.7605   -2.1989 C   0  0  0  0  0  0  0  0  0  0  0  0
    0.4403   -2.5422   -2.7351 C   0  0  0  0  0  0  0  0  0  0  0  0
    0.5367   -1.3680   -1.9820 C   0  0  0  0  0  0  0  0  0  0  0  0
    0.0523    0.1100   -2.7360 Cl  0  0  0  0  0  0  0  0  0  0  0  0
    3.3134    0.8696    2.3885 H   0  0  0  0  0  0  0  0  0  0  0  0
    1.5821    1.1186    2.5019 H   0  0  0  0  0  0  0  0  0  0  0  0
   -0.7502    4.1125   -0.1042 H   0  0  0  0  0  0  0  0  0  0  0  0
   -2.9967    3.1788   -0.2430 H   0  0  0  0  0  0  0  0  0  0  0  0
   -3.3596    0.7327   -0.0720 H   0  0  0  0  0  0  0  0  0  0  0  0
   -1.4530   -0.7874    0.1855 H   0  0  0  0  0  0  0  0  0  0  0  0
    2.2201    5.2463   -2.0129 H   0  0  0  0  0  0  0  0  0  0  0  0
    0.8185    5.5016   -0.9719 H   0  0  0  0  0  0  0  0  0  0  0  0
    0.8572    4.1358   -2.1234 H   0  0  0  0  0  0  0  0  0  0  0  0
    1.9095   -2.6926    0.8531 H   0  0  0  0  0  0  0  0  0  0  0  0
    1.7314   -4.7603   -0.4972 H   0  0  0  0  0  0  0  0  0  0  0  0
    0.7867   -4.6706   -2.7917 H   0  0  0  0  0  0  0  0  0  0  0  0
    0.0429   -2.5177   -3.7480 H   0  0  0  0  0  0  0  0  0  0  0  0
  1  2  2  0  0  0  0
  1  7  1  0  0  0  0
  1  8  1  0  0  0  0
  2  3  1  0  0  0  0
  2 11  1  0  0  0  0
  3  4  2  0  0  0  0
  3 12  1  0  0  0  0
  4  5  1  0  0  0  0
  5  6  1  0  0  0  0
  5 23  1  0  0  0  0
  5 24  1  0  0  0  0
  6  7  1  0  0  0  0
  6 13  2  0  0  0  0
  7 15  1  0  0  0  0
  8  9  2  0  0  0  0
  8 25  1  0  0  0  0
  9 10  1  0  0  0  0
  9 26  1  0  0  0  0
 10 11  2  0  0  0  0
 10 27  1  0  0  0  0
 11 28  1  0  0  0  0
 12 17  2  0  0  0  0
 12 21  1  0  0  0  0
 13 14  1  0  0  0  0
 14 15  2  0  0  0  0
 15 16  1  0  0  0  0
 16 29  1  0  0  0  0
 16 30  1  0  0  0  0
 16 31  1  0  0  0  0
 17 18  1  0  0  0  0
 17 32  1  0  0  0  0
 18 19  2  0  0  0  0
 18 33  1  0  0  0  0
 19 20  1  0  0  0  0
 19 34  1  0  0  0  0
 20 21  2  0  0  0  0
 20 35  1  0  0  0  0
 21 22  1  0  0  0  0
M  END
