Alprazolam
 OpenBabel04201808233D
Structure written by MMmdl.
 35 38  0  0  0  0  0  0  0  0999 V2000
    0.2622    2.1700    0.0293 C   0  0  0  0  0  0  0  0  0  0  0  0
    0.0454    0.7829    0.1707 C   0  0  0  0  0  0  0  0  0  0  0  0
    1.1557   -0.2301    0.2263 C   0  0  0  0  0  0  0  0  0  0  0  0
    2.2160   -0.1369    0.9630 N   0  0  0  0  0  0  0  0  0  0  0  0
    2.3918    1.0492    1.7976 C   0  0  0  0  0  0  0  0  0  0  0  0
    2.5735    2.2441    0.9396 C   0  0  0  0  0  0  0  0  0  0  0  0
    1.5650    2.7244    0.1282 N   0  0  0  0  0  0  0  0  0  0  0  0
   -0.8391    3.0250   -0.1399 C   0  0  0  0  0  0  0  0  0  0  0  0
   -2.1396    2.5134   -0.1496 C   0  0  0  0  0  0  0  0  0  0  0  0
   -2.3507    1.1502    0.0210 C   0  0  0  0  0  0  0  0  0  0  0  0
   -1.2710    0.2866    0.1849 C   0  0  0  0  0  0  0  0  0  0  0  0
    1.0457   -1.4459   -0.6451 C   0  0  0  0  0  0  0  0  0  0  0  0
    3.6290    3.0299    0.8686 N   0  0  0  0  0  0  0  0  0  0  0  0
    3.3397    4.0382   -0.0057 N   0  0  0  0  0  0  0  0  0  0  0  0
    2.1129    3.8545   -0.4627 C   0  0  0  0  0  0  0  0  0  0  0  0
    1.4881   -2.6807   -0.1547 C   0  0  0  0  0  0  0  0  0  0  0  0
    1.4021   -3.8222   -0.9540 C   0  0  0  0  0  0  0  0  0  0  0  0
    0.8846   -3.7322   -2.2459 C   0  0  0  0  0  0  0  0  0  0  0  0
    0.4573   -2.5013   -2.7439 C   0  0  0  0  0  0  0  0  0  0  0  0
    0.5405   -1.3562   -1.9486 C   0  0  0  0  0  0  0  0  0  0  0  0
   -3.9548    0.5268    0.0277 Cl  0  0  0  0  0  0  0  0  0  0  0  0
    1.4835    4.6741   -1.5281 C   0  0  0  0  0  0  0  0  0  0  0  0
    3.2901    0.9050    2.4085 H   0  0  0  0  0  0  0  0  0  0  0  0
    1.5604    1.1740    2.5016 H   0  0  0  0  0  0  0  0  0  0  0  0
   -0.7292    4.1041   -0.2057 H   0  0  0  0  0  0  0  0  0  0  0  0
   -2.9811    3.1928   -0.2682 H   0  0  0  0  0  0  0  0  0  0  0  0
   -1.4594   -0.7769    0.3156 H   0  0  0  0  0  0  0  0  0  0  0  0
    1.8939   -2.7623    0.8518 H   0  0  0  0  0  0  0  0  0  0  0  0
    1.7404   -4.7826   -0.5686 H   0  0  0  0  0  0  0  0  0  0  0  0
    0.8191   -4.6230   -2.8687 H   0  0  0  0  0  0  0  0  0  0  0  0
    0.0626   -2.4322   -3.7563 H   0  0  0  0  0  0  0  0  0  0  0  0
    0.2195   -0.4039   -2.3647 H   0  0  0  0  0  0  0  0  0  0  0  0
    2.2583    5.1633   -2.1282 H   0  0  0  0  0  0  0  0  0  0  0  0
    0.8597    5.4605   -1.0941 H   0  0  0  0  0  0  0  0  0  0  0  0
    0.8828    4.0656   -2.2102 H   0  0  0  0  0  0  0  0  0  0  0  0
  1  2  2  0  0  0  0
  1  7  1  0  0  0  0
  1  8  1  0  0  0  0
  2  3  1  0  0  0  0
  2 11  1  0  0  0  0
  3  4  2  0  0  0  0
  3 12  1  0  0  0  0
  4  5  1  0  0  0  0
  5  6  1  0  0  0  0
  5 23  1  0  0  0  0
  5 24  1  0  0  0  0
  6  7  1  0  0  0  0
  6 13  2  0  0  0  0
  7 15  1  0  0  0  0
  8  9  2  0  0  0  0
  8 25  1  0  0  0  0
  9 10  1  0  0  0  0
  9 26  1  0  0  0  0
 10 11  2  0  0  0  0
 10 21  1  0  0  0  0
 11 27  1  0  0  0  0
 12 16  2  0  0  0  0
 12 20  1  0  0  0  0
 13 14  1  0  0  0  0
 14 15  2  0  0  0  0
 15 22  1  0  0  0  0
 16 17  1  0  0  0  0
 16 28  1  0  0  0  0
 17 18  2  0  0  0  0
 17 29  1  0  0  0  0
 18 19  1  0  0  0  0
 18 30  1  0  0  0  0
 19 20  2  0  0  0  0
 19 31  1  0  0  0  0
 20 32  1  0  0  0  0
 22 33  1  0  0  0  0
 22 34  1  0  0  0  0
 22 35  1  0  0  0  0
M  END
