alpha-hydroxytriazolam
 OpenBabel04201808233D
Structure written by MMmdl.
 36 39  0  0  0  0  0  0  0  0999 V2000
    0.2631    2.1690    0.0244 C   0  0  0  0  0  0  0  0  0  0  0  0
    0.0444    0.7819    0.1655 C   0  0  0  0  0  0  0  0  0  0  0  0
    1.1541   -0.2309    0.2236 C   0  0  0  0  0  0  0  0  0  0  0  0
    2.2121   -0.1360    0.9636 N   0  0  0  0  0  0  0  0  0  0  0  0
    2.3831    1.0497    1.8003 C   0  0  0  0  0  0  0  0  0  0  0  0
    2.5682    2.2459    0.9442 C   0  0  0  0  0  0  0  0  0  0  0  0
    1.5678    2.7204    0.1191 N   0  0  0  0  0  0  0  0  0  0  0  0
   -0.8372    3.0275   -0.1342 C   0  0  0  0  0  0  0  0  0  0  0  0
   -2.1384    2.5177   -0.1410 C   0  0  0  0  0  0  0  0  0  0  0  0
   -2.3513    1.1539    0.0241 C   0  0  0  0  0  0  0  0  0  0  0  0
   -1.2726    0.2877    0.1819 C   0  0  0  0  0  0  0  0  0  0  0  0
    1.0466   -1.4473   -0.6472 C   0  0  0  0  0  0  0  0  0  0  0  0
    3.6176    3.0406    0.8906 N   0  0  0  0  0  0  0  0  0  0  0  0
    3.3349    4.0436    0.0075 N   0  0  0  0  0  0  0  0  0  0  0  0
    2.1204    3.8436   -0.4833 C   0  0  0  0  0  0  0  0  0  0  0  0
    1.4901   -2.6813   -0.1554 C   0  0  0  0  0  0  0  0  0  0  0  0
    1.4062   -3.8237   -0.9537 C   0  0  0  0  0  0  0  0  0  0  0  0
    0.8896   -3.7355   -2.2460 C   0  0  0  0  0  0  0  0  0  0  0  0
    0.4612   -2.5055   -2.7455 C   0  0  0  0  0  0  0  0  0  0  0  0
    0.5424   -1.3596   -1.9512 C   0  0  0  0  0  0  0  0  0  0  0  0
   -3.9565    0.5334    0.0340 Cl  0  0  0  0  0  0  0  0  0  0  0  0
    1.4736    4.6360   -1.5673 C   0  0  0  0  0  0  0  0  0  0  0  0
    2.3957    5.6498   -1.9837 O   0  0  0  0  0  0  0  0  0  0  0  0
    3.2786    0.9055    2.4152 H   0  0  0  0  0  0  0  0  0  0  0  0
    1.5483    1.1735    2.5004 H   0  0  0  0  0  0  0  0  0  0  0  0
   -0.7269    4.1074   -0.1914 H   0  0  0  0  0  0  0  0  0  0  0  0
   -2.9797    3.1990   -0.2518 H   0  0  0  0  0  0  0  0  0  0  0  0
   -1.4624   -0.7758    0.3111 H   0  0  0  0  0  0  0  0  0  0  0  0
    1.8950   -2.7616    0.8516 H   0  0  0  0  0  0  0  0  0  0  0  0
    1.7453   -4.7833   -0.5672 H   0  0  0  0  0  0  0  0  0  0  0  0
    0.8257   -4.6270   -2.8681 H   0  0  0  0  0  0  0  0  0  0  0  0
    0.0673   -2.4379   -3.7582 H   0  0  0  0  0  0  0  0  0  0  0  0
    0.2204   -0.4083   -2.3687 H   0  0  0  0  0  0  0  0  0  0  0  0
    0.5694    5.1274   -1.1974 H   0  0  0  0  0  0  0  0  0  0  0  0
    1.2424    4.0243   -2.4433 H   0  0  0  0  0  0  0  0  0  0  0  0
    1.9154    6.1582   -2.6704 H   0  0  0  0  0  0  0  0  0  0  0  0
  1  2  2  0  0  0  0
  1  7  1  0  0  0  0
  1  8  1  0  0  0  0
  2  3  1  0  0  0  0
  2 11  1  0  0  0  0
  3  4  2  0  0  0  0
  3 12  1  0  0  0  0
  4  5  1  0  0  0  0
  5  6  1  0  0  0  0
  5 24  1  0  0  0  0
  5 25  1  0  0  0  0
  6  7  1  0  0  0  0
  6 13  2  0  0  0  0
  7 15  1  0  0  0  0
  8  9  2  0  0  0  0
  8 26  1  0  0  0  0
  9 10  1  0  0  0  0
  9 27  1  0  0  0  0
 10 11  2  0  0  0  0
 10 21  1  0  0  0  0
 11 28  1  0  0  0  0
 12 16  2  0  0  0  0
 12 20  1  0  0  0  0
 13 14  1  0  0  0  0
 14 15  2  0  0  0  0
 15 22  1  0  0  0  0
 16 17  1  0  0  0  0
 16 29  1  0  0  0  0
 17 18  2  0  0  0  0
 17 30  1  0  0  0  0
 18 19  1  0  0  0  0
 18 31  1  0  0  0  0
 19 20  2  0  0  0  0
 19 32  1  0  0  0  0
 20 33  1  0  0  0  0
 22 23  1  0  0  0  0
 22 34  1  0  0  0  0
 22 35  1  0  0  0  0
 23 36  1  0  0  0  0
M  END
