Ro11-5074
 OpenBabel04201808233D
Structure written by MMmdl.
 40 43  0  0  0  0  0  0  0  0999 V2000
    0.2567    2.1773    0.0622 C   0  0  0  0  0  0  0  0  0  0  0  0
    0.0456    0.7842    0.1554 C   0  0  0  0  0  0  0  0  0  0  0  0
    1.1652   -0.2177    0.1914 C   0  0  0  0  0  0  0  0  0  0  0  0
    2.2267   -0.1389    0.9259 N   0  0  0  0  0  0  0  0  0  0  0  0
    2.4034    1.0234    1.7985 C   0  0  2  0  0  0  0  0  0  0  0  0
    2.5792    2.2432    0.9589 C   0  0  0  0  0  0  0  0  0  0  0  0
    1.5591    2.7336    0.1654 N   0  0  0  0  0  0  0  0  0  0  0  0
   -0.8460    3.0352   -0.0864 C   0  0  0  0  0  0  0  0  0  0  0  0
   -2.1469    2.5241   -0.1338 C   0  0  0  0  0  0  0  0  0  0  0  0
   -2.3554    1.1473   -0.0240 C   0  0  0  0  0  0  0  0  0  0  0  0
   -1.2678    0.2769    0.1213 C   0  0  0  0  0  0  0  0  0  0  0  0
    1.0510   -1.4236   -0.6813 C   0  0  0  0  0  0  0  0  0  0  0  0
    3.6275    3.0407    0.8877 N   0  0  0  0  0  0  0  0  0  0  0  0
    3.3245    4.0591    0.0312 N   0  0  0  0  0  0  0  0  0  0  0  0
    2.0965    3.8722   -0.4188 C   0  0  0  0  0  0  0  0  0  0  0  0
    1.4962   -2.6444   -0.1533 C   0  0  0  0  0  0  0  0  0  0  0  0
    1.4027   -3.8107   -0.9131 C   0  0  0  0  0  0  0  0  0  0  0  0
    0.8758   -3.7614   -2.2027 C   0  0  0  0  0  0  0  0  0  0  0  0
    0.4497   -2.5443   -2.7395 C   0  0  0  0  0  0  0  0  0  0  0  0
    0.5398   -1.3702   -1.9853 C   0  0  0  0  0  0  0  0  0  0  0  0
    1.4567    4.6958   -1.4752 C   0  0  0  0  0  0  0  0  0  0  0  0
    0.0503    0.1059   -2.7397 Cl  0  0  0  0  0  0  0  0  0  0  0  0
    3.6256    0.7534    2.6741 C   0  0  0  0  0  0  0  0  0  0  0  0
   -3.7229    0.6111   -0.0603 N   0  3  0  0  0  0  0  0  0  0  0  0
   -4.6686    1.4105   -0.1929 O   0  0  0  0  0  0  0  0  0  0  0  0
   -3.8766   -0.6204    0.0432 O   0  5  0  0  0  0  0  0  0  0  0  0
    1.5419    1.1401    2.4689 H   0  0  0  0  0  0  0  0  0  0  0  0
   -0.7361    4.1165   -0.1117 H   0  0  0  0  0  0  0  0  0  0  0  0
   -2.9797    3.2171   -0.2367 H   0  0  0  0  0  0  0  0  0  0  0  0
   -1.4411   -0.7935    0.2082 H   0  0  0  0  0  0  0  0  0  0  0  0
    1.9082   -2.6917    0.8531 H   0  0  0  0  0  0  0  0  0  0  0  0
    1.7418   -4.7590   -0.4990 H   0  0  0  0  0  0  0  0  0  0  0  0
    0.8042   -4.6714   -2.7963 H   0  0  0  0  0  0  0  0  0  0  0  0
    0.0554   -2.5206   -3.7535 H   0  0  0  0  0  0  0  0  0  0  0  0
    0.8565    4.0887   -2.1589 H   0  0  0  0  0  0  0  0  0  0  0  0
    2.2256    5.1940   -2.0755 H   0  0  0  0  0  0  0  0  0  0  0  0
    0.8305    5.4755   -1.0328 H   0  0  0  0  0  0  0  0  0  0  0  0
    3.8144    1.5885    3.3575 H   0  0  0  0  0  0  0  0  0  0  0  0
    4.5283    0.6003    2.0709 H   0  0  0  0  0  0  0  0  0  0  0  0
    3.4766   -0.1502    3.2757 H   0  0  0  0  0  0  0  0  0  0  0  0
  1  2  2  0  0  0  0
  1  7  1  0  0  0  0
  1  8  1  0  0  0  0
  2  3  1  0  0  0  0
  2 11  1  0  0  0  0
  3  4  2  0  0  0  0
  3 12  1  0  0  0  0
  4  5  1  0  0  0  0
  5  6  1  0  0  0  0
  5 23  1  0  0  0  0
  5 27  1  1  0  0  0
  6  7  1  0  0  0  0
  6 13  2  0  0  0  0
  7 15  1  0  0  0  0
  8  9  2  0  0  0  0
  8 28  1  0  0  0  0
  9 10  1  0  0  0  0
  9 29  1  0  0  0  0
 10 11  2  0  0  0  0
 10 24  1  0  0  0  0
 11 30  1  0  0  0  0
 12 16  2  0  0  0  0
 12 20  1  0  0  0  0
 13 14  1  0  0  0  0
 14 15  2  0  0  0  0
 15 21  1  0  0  0  0
 16 17  1  0  0  0  0
 16 31  1  0  0  0  0
 17 18  2  0  0  0  0
 17 32  1  0  0  0  0
 18 19  1  0  0  0  0
 18 33  1  0  0  0  0
 19 20  2  0  0  0  0
 19 34  1  0  0  0  0
 20 22  1  0  0  0  0
 21 35  1  0  0  0  0
 21 36  1  0  0  0  0
 21 37  1  0  0  0  0
 23 38  1  0  0  0  0
 23 39  1  0  0  0  0
 23 40  1  0  0  0  0
 24 25  2  0  0  0  0
 24 26  1  0  0  0  0
M  CHG  2  24   1  26  -1
M  END
