Ro17-4582
 OpenBabel04201808233D
Structure written by MMmdl.
 32 35  0  0  0  0  0  0  0  0999 V2000
    0.1808    2.0609    0.1637 C   0  0  0  0  0  0  0  0  0  0  0  0
    0.0915    0.6758    0.1596 C   0  0  0  0  0  0  0  0  0  0  0  0
    1.2245   -0.2606    0.1856 C   0  0  0  0  0  0  0  0  0  0  0  0
    2.3306   -0.0757    0.8230 N   0  0  0  0  0  0  0  0  0  0  0  0
    2.4844    1.0675    1.7169 C   0  0  0  0  0  0  0  0  0  0  0  0
    2.4736    2.3626    0.9947 C   0  0  0  0  0  0  0  0  0  0  0  0
    1.3456    2.8197    0.3348 N   0  0  0  0  0  0  0  0  0  0  0  0
   -1.3150    2.8367   -0.0245 S   0  0  0  0  0  0  0  0  0  0  0  0
   -2.1514    1.3545   -0.0781 C   0  0  0  0  0  0  0  0  0  0  0  0
   -1.2915    0.2841    0.0219 C   0  0  0  0  0  0  0  0  0  0  0  0
    3.4206    3.2779    0.9888 N   0  0  0  0  0  0  0  0  0  0  0  0
    2.9308    4.3748    0.3463 N   0  0  0  0  0  0  0  0  0  0  0  0
    1.6922    4.1168   -0.0375 C   0  0  0  0  0  0  0  0  0  0  0  0
    1.0865   -1.4931   -0.6266 C   0  0  0  0  0  0  0  0  0  0  0  0
    0.8604    5.0554   -0.8304 C   0  0  0  0  0  0  0  0  0  0  0  0
    1.5768   -2.6947   -0.0959 C   0  0  0  0  0  0  0  0  0  0  0  0
    1.4542   -3.8764   -0.8272 C   0  0  0  0  0  0  0  0  0  0  0  0
    0.8439   -3.8605   -2.0813 C   0  0  0  0  0  0  0  0  0  0  0  0
    0.3551   -2.6628   -2.6096 C   0  0  0  0  0  0  0  0  0  0  0  0
    0.4733   -1.4742   -1.8842 C   0  0  0  0  0  0  0  0  0  0  0  0
   -0.1126   -0.0187   -2.6076 Cl  0  0  0  0  0  0  0  0  0  0  0  0
    3.4460    0.9601    2.2322 H   0  0  0  0  0  0  0  0  0  0  0  0
    1.7220    1.0509    2.5059 H   0  0  0  0  0  0  0  0  0  0  0  0
   -3.2281    1.3298   -0.1912 H   0  0  0  0  0  0  0  0  0  0  0  0
   -1.6419   -0.7424   -0.0124 H   0  0  0  0  0  0  0  0  0  0  0  0
    1.4722    5.8967   -1.1741 H   0  0  0  0  0  0  0  0  0  0  0  0
    0.0509    5.4716   -0.2245 H   0  0  0  0  0  0  0  0  0  0  0  0
    0.4496    4.5731   -1.7220 H   0  0  0  0  0  0  0  0  0  0  0  0
    2.0476   -2.7179    0.8848 H   0  0  0  0  0  0  0  0  0  0  0  0
    1.8330   -4.8117   -0.4182 H   0  0  0  0  0  0  0  0  0  0  0  0
    0.7494   -4.7834   -2.6514 H   0  0  0  0  0  0  0  0  0  0  0  0
   -0.1130   -2.6667   -3.5920 H   0  0  0  0  0  0  0  0  0  0  0  0
  1  2  2  0  0  0  0
  1  7  1  0  0  0  0
  1  8  1  0  0  0  0
  2  3  1  0  0  0  0
  2 10  1  0  0  0  0
  3  4  2  0  0  0  0
  3 14  1  0  0  0  0
  4  5  1  0  0  0  0
  5  6  1  0  0  0  0
  5 22  1  0  0  0  0
  5 23  1  0  0  0  0
  6  7  1  0  0  0  0
  6 11  2  0  0  0  0
  7 13  1  0  0  0  0
  8  9  1  0  0  0  0
  9 10  2  0  0  0  0
  9 24  1  0  0  0  0
 10 25  1  0  0  0  0
 11 12  1  0  0  0  0
 12 13  2  0  0  0  0
 13 15  1  0  0  0  0
 14 16  2  0  0  0  0
 14 20  1  0  0  0  0
 15 26  1  0  0  0  0
 15 27  1  0  0  0  0
 15 28  1  0  0  0  0
 16 17  1  0  0  0  0
 16 29  1  0  0  0  0
 17 18  2  0  0  0  0
 17 30  1  0  0  0  0
 18 19  1  0  0  0  0
 18 31  1  0  0  0  0
 19 20  2  0  0  0  0
 19 32  1  0  0  0  0
 20 21  1  0  0  0  0
M  END
