Etizolam
 OpenBabel04201808233D
Structure written by MMmdl.
 38 41  0  0  0  0  0  0  0  0999 V2000
    0.1813    2.0597    0.1636 C   0  0  0  0  0  0  0  0  0  0  0  0
    0.0931    0.6757    0.1592 C   0  0  0  0  0  0  0  0  0  0  0  0
    1.2263   -0.2603    0.1855 C   0  0  0  0  0  0  0  0  0  0  0  0
    2.3323   -0.0753    0.8233 N   0  0  0  0  0  0  0  0  0  0  0  0
    2.4848    1.0678    1.7174 C   0  0  0  0  0  0  0  0  0  0  0  0
    2.4732    2.3632    0.9958 C   0  0  0  0  0  0  0  0  0  0  0  0
    1.3452    2.8193    0.3353 N   0  0  0  0  0  0  0  0  0  0  0  0
   -1.3137    2.8331   -0.0255 S   0  0  0  0  0  0  0  0  0  0  0  0
   -2.1564    1.3525   -0.0796 C   0  0  0  0  0  0  0  0  0  0  0  0
   -1.2895    0.2840    0.0207 C   0  0  0  0  0  0  0  0  0  0  0  0
    3.4193    3.2795    0.9907 N   0  0  0  0  0  0  0  0  0  0  0  0
    2.9290    4.3761    0.3481 N   0  0  0  0  0  0  0  0  0  0  0  0
    1.6908    4.1167   -0.0367 C   0  0  0  0  0  0  0  0  0  0  0  0
    1.0883   -1.4926   -0.6270 C   0  0  0  0  0  0  0  0  0  0  0  0
    0.8588    5.0542   -0.8308 C   0  0  0  0  0  0  0  0  0  0  0  0
    1.5784   -2.6945   -0.0966 C   0  0  0  0  0  0  0  0  0  0  0  0
    1.4579   -3.8756   -0.8290 C   0  0  0  0  0  0  0  0  0  0  0  0
    0.8498   -3.8589   -2.0842 C   0  0  0  0  0  0  0  0  0  0  0  0
    0.3613   -2.6611   -2.6124 C   0  0  0  0  0  0  0  0  0  0  0  0
    0.4776   -1.4729   -1.8857 C   0  0  0  0  0  0  0  0  0  0  0  0
   -0.1069   -0.0171   -2.6093 Cl  0  0  0  0  0  0  0  0  0  0  0  0
   -4.0601    1.2811   -1.6982 C   0  0  0  0  0  0  0  0  0  0  0  0
   -3.6483    1.3238   -0.2344 C   0  0  0  0  0  0  0  0  0  0  0  0
    3.4464    0.9610    2.2332 H   0  0  0  0  0  0  0  0  0  0  0  0
    1.7222    1.0505    2.5062 H   0  0  0  0  0  0  0  0  0  0  0  0
   -1.6332   -0.7454   -0.0122 H   0  0  0  0  0  0  0  0  0  0  0  0
    1.4701    5.8960   -1.1743 H   0  0  0  0  0  0  0  0  0  0  0  0
    0.0483    5.4698   -0.2258 H   0  0  0  0  0  0  0  0  0  0  0  0
    0.4492    4.5712   -1.7225 H   0  0  0  0  0  0  0  0  0  0  0  0
    2.0480   -2.7181    0.8847 H   0  0  0  0  0  0  0  0  0  0  0  0
    1.8368   -4.8109   -0.4202 H   0  0  0  0  0  0  0  0  0  0  0  0
    0.7569   -4.7814   -2.6552 H   0  0  0  0  0  0  0  0  0  0  0  0
   -0.1049   -2.6644   -3.5955 H   0  0  0  0  0  0  0  0  0  0  0  0
   -5.1513    1.2755   -1.7845 H   0  0  0  0  0  0  0  0  0  0  0  0
   -3.6761    0.3830   -2.1937 H   0  0  0  0  0  0  0  0  0  0  0  0
   -3.6811    2.1528   -2.2425 H   0  0  0  0  0  0  0  0  0  0  0  0
   -4.0774    2.2177    0.2346 H   0  0  0  0  0  0  0  0  0  0  0  0
   -4.0752    0.4617    0.2921 H   0  0  0  0  0  0  0  0  0  0  0  0
  1  2  2  0  0  0  0
  1  7  1  0  0  0  0
  1  8  1  0  0  0  0
  2  3  1  0  0  0  0
  2 10  1  0  0  0  0
  3  4  2  0  0  0  0
  3 14  1  0  0  0  0
  4  5  1  0  0  0  0
  5  6  1  0  0  0  0
  5 24  1  0  0  0  0
  5 25  1  0  0  0  0
  6  7  1  0  0  0  0
  6 11  2  0  0  0  0
  7 13  1  0  0  0  0
  8  9  1  0  0  0  0
  9 10  2  0  0  0  0
  9 23  1  0  0  0  0
 10 26  1  0  0  0  0
 11 12  1  0  0  0  0
 12 13  2  0  0  0  0
 13 15  1  0  0  0  0
 14 16  2  0  0  0  0
 14 20  1  0  0  0  0
 15 27  1  0  0  0  0
 15 28  1  0  0  0  0
 15 29  1  0  0  0  0
 16 17  1  0  0  0  0
 16 30  1  0  0  0  0
 17 18  2  0  0  0  0
 17 31  1  0  0  0  0
 18 19  1  0  0  0  0
 18 32  1  0  0  0  0
 19 20  2  0  0  0  0
 19 33  1  0  0  0  0
 20 21  1  0  0  0  0
 22 23  1  0  0  0  0
 22 34  1  0  0  0  0
 22 35  1  0  0  0  0
 22 36  1  0  0  0  0
 23 37  1  0  0  0  0
 23 38  1  0  0  0  0
M  END
