Brotizolam
 OpenBabel04201808233D
Structure written by MMmdl.
 32 35  0  0  0  0  0  0  0  0999 V2000
    0.1785    2.0610    0.1662 C   0  0  0  0  0  0  0  0  0  0  0  0
    0.0906    0.6741    0.1592 C   0  0  0  0  0  0  0  0  0  0  0  0
    1.2249   -0.2604    0.1840 C   0  0  0  0  0  0  0  0  0  0  0  0
    2.3310   -0.0738    0.8205 N   0  0  0  0  0  0  0  0  0  0  0  0
    2.4850    1.0681    1.7158 C   0  0  0  0  0  0  0  0  0  0  0  0
    2.4708    2.3649    0.9968 C   0  0  0  0  0  0  0  0  0  0  0  0
    1.3414    2.8217    0.3390 N   0  0  0  0  0  0  0  0  0  0  0  0
   -1.3211    2.8336   -0.0216 S   0  0  0  0  0  0  0  0  0  0  0  0
   -2.1348    1.3566   -0.0796 C   0  0  0  0  0  0  0  0  0  0  0  0
   -1.2939    0.2786    0.0195 C   0  0  0  0  0  0  0  0  0  0  0  0
    3.4158    3.2822    0.9926 N   0  0  0  0  0  0  0  0  0  0  0  0
    2.9232    4.3800    0.3540 N   0  0  0  0  0  0  0  0  0  0  0  0
    1.6847    4.1207   -0.0292 C   0  0  0  0  0  0  0  0  0  0  0  0
    1.0876   -1.4928   -0.6282 C   0  0  0  0  0  0  0  0  0  0  0  0
    0.8499    5.0604   -0.8180 C   0  0  0  0  0  0  0  0  0  0  0  0
    1.5797   -2.6939   -0.0984 C   0  0  0  0  0  0  0  0  0  0  0  0
    1.4602   -3.8748   -0.8314 C   0  0  0  0  0  0  0  0  0  0  0  0
    0.8514   -3.8584   -2.0862 C   0  0  0  0  0  0  0  0  0  0  0  0
    0.3612   -2.6610   -2.6137 C   0  0  0  0  0  0  0  0  0  0  0  0
    0.4764   -1.4732   -1.8866 C   0  0  0  0  0  0  0  0  0  0  0  0
   -0.1089   -0.0172   -2.6091 Cl  0  0  0  0  0  0  0  0  0  0  0  0
   -3.9945    1.2120   -0.2768 Br  0  0  0  0  0  0  0  0  0  0  0  0
    3.4476    0.9611    2.2293 H   0  0  0  0  0  0  0  0  0  0  0  0
    1.7239    1.0490    2.5062 H   0  0  0  0  0  0  0  0  0  0  0  0
   -1.6381   -0.7493   -0.0161 H   0  0  0  0  0  0  0  0  0  0  0  0
    1.4592    5.9049   -1.1582 H   0  0  0  0  0  0  0  0  0  0  0  0
    0.0393    5.4716   -0.2102 H   0  0  0  0  0  0  0  0  0  0  0  0
    0.4404    4.5806   -1.7116 H   0  0  0  0  0  0  0  0  0  0  0  0
    2.0493   -2.7178    0.8829 H   0  0  0  0  0  0  0  0  0  0  0  0
    1.8403   -4.8101   -0.4231 H   0  0  0  0  0  0  0  0  0  0  0  0
    0.7592   -4.7808   -2.6576 H   0  0  0  0  0  0  0  0  0  0  0  0
   -0.1055   -2.6645   -3.5967 H   0  0  0  0  0  0  0  0  0  0  0  0
  1  2  2  0  0  0  0
  1  7  1  0  0  0  0
  1  8  1  0  0  0  0
  2  3  1  0  0  0  0
  2 10  1  0  0  0  0
  3  4  2  0  0  0  0
  3 14  1  0  0  0  0
  4  5  1  0  0  0  0
  5  6  1  0  0  0  0
  5 23  1  0  0  0  0
  5 24  1  0  0  0  0
  6  7  1  0  0  0  0
  6 11  2  0  0  0  0
  7 13  1  0  0  0  0
  8  9  1  0  0  0  0
  9 10  2  0  0  0  0
  9 22  1  0  0  0  0
 10 25  1  0  0  0  0
 11 12  1  0  0  0  0
 12 13  2  0  0  0  0
 13 15  1  0  0  0  0
 14 16  2  0  0  0  0
 14 20  1  0  0  0  0
 15 26  1  0  0  0  0
 15 27  1  0  0  0  0
 15 28  1  0  0  0  0
 16 17  1  0  0  0  0
 16 29  1  0  0  0  0
 17 18  2  0  0  0  0
 17 30  1  0  0  0  0
 18 19  1  0  0  0  0
 18 31  1  0  0  0  0
 19 20  2  0  0  0  0
 19 32  1  0  0  0  0
 20 21  1  0  0  0  0
M  END
