Ro22-1892
 OpenBabel04201808233D
Structure written by MMmdl.
 46 49  0  0  0  0  0  0  0  0999 V2000
    0.2657    2.1615    0.0846 C   0  0  0  0  0  0  0  0  0  0  0  0
    0.0821    0.7673    0.2013 C   0  0  0  0  0  0  0  0  0  0  0  0
    1.1887   -0.2398    0.2216 C   0  0  0  0  0  0  0  0  0  0  0  0
    2.2824   -0.0784    0.9473 N   0  3  0  0  0  0  0  0  0  0  0  0
    2.4980    1.1107    1.8027 C   0  0  0  0  0  0  0  0  0  0  0  0
    2.6060    2.3344    0.9669 C   0  0  0  0  0  0  0  0  0  0  0  0
    1.5397    2.7779    0.2069 N   0  0  0  0  0  0  0  0  0  0  0  0
   -0.8509    2.9904   -0.1376 C   0  0  0  0  0  0  0  0  0  0  0  0
   -2.1381    2.4525   -0.1967 C   0  0  0  0  0  0  0  0  0  0  0  0
   -2.3210    1.0856   -0.0383 C   0  0  0  0  0  0  0  0  0  0  0  0
   -1.2253    0.2464    0.1552 C   0  0  0  0  0  0  0  0  0  0  0  0
    3.6262    3.2606    0.7878 C   0  0  0  0  0  0  0  0  0  0  0  0
    3.1815    4.2816   -0.0380 N   0  0  0  0  0  0  0  0  0  0  0  0
    1.9398    3.9752   -0.3432 C   0  0  0  0  0  0  0  0  0  0  0  0
    1.0658   -1.4467   -0.6336 C   0  0  0  0  0  0  0  0  0  0  0  0
    1.4575   -2.6984   -0.1502 C   0  0  0  0  0  0  0  0  0  0  0  0
    1.2996   -3.8270   -0.9578 C   0  0  0  0  0  0  0  0  0  0  0  0
    0.7529   -3.7054   -2.2383 C   0  0  0  0  0  0  0  0  0  0  0  0
    0.3605   -2.4544   -2.7173 C   0  0  0  0  0  0  0  0  0  0  0  0
    0.5170   -1.3307   -1.9125 C   0  0  0  0  0  0  0  0  0  0  0  0
   -3.9080    0.4215   -0.0979 Cl  0  0  0  0  0  0  0  0  0  0  0  0
    0.1365   -0.1336   -2.3841 F   0  0  0  0  0  0  0  0  0  0  0  0
    3.2309   -0.9506    0.9117 O   0  5  0  0  0  0  0  0  0  0  0  0
    4.9757    3.2407    1.3695 C   0  0  0  0  0  0  0  0  0  0  0  0
    5.3878    2.3592    2.1180 O   0  0  0  0  0  0  0  0  0  0  0  0
    5.7172    4.3202    0.9761 O   0  0  0  0  0  0  0  0  0  0  0  0
    7.0639    4.4044    1.4828 C   0  0  0  0  0  0  0  0  0  0  0  0
    7.4600    5.8757    1.4641 C   0  0  0  0  0  0  0  0  0  0  0  0
    7.9936    3.5842    0.5960 C   0  0  0  0  0  0  0  0  0  0  0  0
    3.4011    0.9333    2.3930 H   0  0  0  0  0  0  0  0  0  0  0  0
    1.6637    1.1721    2.5108 H   0  0  0  0  0  0  0  0  0  0  0  0
   -0.7574    4.0715   -0.2242 H   0  0  0  0  0  0  0  0  0  0  0  0
   -2.9889    3.1123   -0.3519 H   0  0  0  0  0  0  0  0  0  0  0  0
   -1.4022   -0.8218    0.2595 H   0  0  0  0  0  0  0  0  0  0  0  0
    1.2971    4.5637   -0.9864 H   0  0  0  0  0  0  0  0  0  0  0  0
    1.8783   -2.8031    0.8472 H   0  0  0  0  0  0  0  0  0  0  0  0
    1.6021   -4.8055   -0.5878 H   0  0  0  0  0  0  0  0  0  0  0  0
    0.6321   -4.5888   -2.8632 H   0  0  0  0  0  0  0  0  0  0  0  0
   -0.0659   -2.3537   -3.7114 H   0  0  0  0  0  0  0  0  0  0  0  0
    7.1064    4.0456    2.5182 H   0  0  0  0  0  0  0  0  0  0  0  0
    8.4784    6.0187    1.8377 H   0  0  0  0  0  0  0  0  0  0  0  0
    6.7746    6.4619    2.0858 H   0  0  0  0  0  0  0  0  0  0  0  0
    7.3953    6.2881    0.4510 H   0  0  0  0  0  0  0  0  0  0  0  0
    9.0325    3.6641    0.9302 H   0  0  0  0  0  0  0  0  0  0  0  0
    7.9328    3.9150   -0.4467 H   0  0  0  0  0  0  0  0  0  0  0  0
    7.7091    2.5270    0.6059 H   0  0  0  0  0  0  0  0  0  0  0  0
  1  2  2  0  0  0  0
  1  7  1  0  0  0  0
  1  8  1  0  0  0  0
  2  3  1  0  0  0  0
  2 11  1  0  0  0  0
  3  4  2  0  0  0  0
  3 15  1  0  0  0  0
  4  5  1  0  0  0  0
  4 23  1  0  0  0  0
  5  6  1  0  0  0  0
  5 30  1  0  0  0  0
  5 31  1  0  0  0  0
  6  7  1  0  0  0  0
  6 12  2  0  0  0  0
  7 14  1  0  0  0  0
  8  9  2  0  0  0  0
  8 32  1  0  0  0  0
  9 10  1  0  0  0  0
  9 33  1  0  0  0  0
 10 11  2  0  0  0  0
 10 21  1  0  0  0  0
 11 34  1  0  0  0  0
 12 13  1  0  0  0  0
 12 24  1  0  0  0  0
 13 14  2  0  0  0  0
 14 35  1  0  0  0  0
 15 16  2  0  0  0  0
 15 20  1  0  0  0  0
 16 17  1  0  0  0  0
 16 36  1  0  0  0  0
 17 18  2  0  0  0  0
 17 37  1  0  0  0  0
 18 19  1  0  0  0  0
 18 38  1  0  0  0  0
 19 20  2  0  0  0  0
 19 39  1  0  0  0  0
 20 22  1  0  0  0  0
 24 25  2  0  0  0  0
 24 26  1  0  0  0  0
 26 27  1  0  0  0  0
 27 28  1  0  0  0  0
 27 29  1  0  0  0  0
 27 40  1  0  0  0  0
 28 41  1  0  0  0  0
 28 42  1  0  0  0  0
 28 43  1  0  0  0  0
 29 44  1  0  0  0  0
 29 45  1  0  0  0  0
 29 46  1  0  0  0  0
M  CHG  2   4   1  23  -1
M  END
