Ro22-0992
 OpenBabel04201808233D
Structure written by MMmdl.
 36 39  0  0  0  0  0  0  0  0999 V2000
    0.2478    2.1808    0.1128 C   0  0  0  0  0  0  0  0  0  0  0  0
    0.0520    0.7861    0.1916 C   0  0  0  0  0  0  0  0  0  0  0  0
    1.1815   -0.2064    0.1906 C   0  0  0  0  0  0  0  0  0  0  0  0
    2.2724   -0.1173    0.8797 N   0  0  0  0  0  0  0  0  0  0  0  0
    2.4532    1.0264    1.7601 C   0  0  0  0  0  0  0  0  0  0  0  0
    2.6099    2.2471    0.9395 C   0  0  0  0  0  0  0  0  0  0  0  0
    1.5390    2.7593    0.2306 N   0  0  0  0  0  0  0  0  0  0  0  0
   -0.8586    3.0269   -0.0798 C   0  0  0  0  0  0  0  0  0  0  0  0
   -2.1498    2.4985   -0.1438 C   0  0  0  0  0  0  0  0  0  0  0  0
   -2.3443    1.1276   -0.0207 C   0  0  0  0  0  0  0  0  0  0  0  0
   -1.2569    0.2723    0.1435 C   0  0  0  0  0  0  0  0  0  0  0  0
    3.6665    3.1273    0.7343 C   0  0  0  0  0  0  0  0  0  0  0  0
    3.2279    4.2024   -0.0285 N   0  0  0  0  0  0  0  0  0  0  0  0
    1.9615    3.9618   -0.2865 C   0  0  0  0  0  0  0  0  0  0  0  0
    1.0471   -1.4141   -0.6772 C   0  0  0  0  0  0  0  0  0  0  0  0
    1.4847   -2.6374   -0.1480 C   0  0  0  0  0  0  0  0  0  0  0  0
    1.3705   -3.8064   -0.9010 C   0  0  0  0  0  0  0  0  0  0  0  0
    0.8299   -3.7573   -2.1849 C   0  0  0  0  0  0  0  0  0  0  0  0
    0.4106   -2.5383   -2.7227 C   0  0  0  0  0  0  0  0  0  0  0  0
    0.5216   -1.3615   -1.9754 C   0  0  0  0  0  0  0  0  0  0  0  0
   -3.9380    0.4807   -0.0886 Cl  0  0  0  0  0  0  0  0  0  0  0  0
    0.0378    0.1154   -2.7313 Cl  0  0  0  0  0  0  0  0  0  0  0  0
    5.0486    3.0577    1.2199 C   0  0  0  0  0  0  0  0  0  0  0  0
    5.5034    2.1401    1.8968 O   0  0  0  0  0  0  0  0  0  0  0  0
    5.8375    4.1025    0.8780 O   0  0  0  0  0  0  0  0  0  0  0  0
    3.3264    0.8393    2.3883 H   0  0  0  0  0  0  0  0  0  0  0  0
    1.6163    1.1239    2.4639 H   0  0  0  0  0  0  0  0  0  0  0  0
   -0.7538    4.1085   -0.1417 H   0  0  0  0  0  0  0  0  0  0  0  0
   -2.9969    3.1682   -0.2767 H   0  0  0  0  0  0  0  0  0  0  0  0
   -1.4377   -0.7973    0.2222 H   0  0  0  0  0  0  0  0  0  0  0  0
    1.3168    4.6022   -0.8756 H   0  0  0  0  0  0  0  0  0  0  0  0
    1.9069   -2.6843    0.8542 H   0  0  0  0  0  0  0  0  0  0  0  0
    1.7038   -4.7561   -0.4860 H   0  0  0  0  0  0  0  0  0  0  0  0
    0.7418   -4.6693   -2.7733 H   0  0  0  0  0  0  0  0  0  0  0  0
    0.0050   -2.5152   -3.7323 H   0  0  0  0  0  0  0  0  0  0  0  0
    6.7113    3.8958    1.2845 H   0  0  0  0  0  0  0  0  0  0  0  0
  1  2  2  0  0  0  0
  1  7  1  0  0  0  0
  1  8  1  0  0  0  0
  2  3  1  0  0  0  0
  2 11  1  0  0  0  0
  3  4  2  0  0  0  0
  3 15  1  0  0  0  0
  4  5  1  0  0  0  0
  5  6  1  0  0  0  0
  5 26  1  0  0  0  0
  5 27  1  0  0  0  0
  6  7  1  0  0  0  0
  6 12  2  0  0  0  0
  7 14  1  0  0  0  0
  8  9  2  0  0  0  0
  8 28  1  0  0  0  0
  9 10  1  0  0  0  0
  9 29  1  0  0  0  0
 10 11  2  0  0  0  0
 10 21  1  0  0  0  0
 11 30  1  0  0  0  0
 12 13  1  0  0  0  0
 12 23  1  0  0  0  0
 13 14  2  0  0  0  0
 14 31  1  0  0  0  0
 15 16  2  0  0  0  0
 15 20  1  0  0  0  0
 16 17  1  0  0  0  0
 16 32  1  0  0  0  0
 17 18  2  0  0  0  0
 17 33  1  0  0  0  0
 18 19  1  0  0  0  0
 18 34  1  0  0  0  0
 19 20  2  0  0  0  0
 19 35  1  0  0  0  0
 20 22  1  0  0  0  0
 23 24  2  0  0  0  0
 23 25  1  0  0  0  0
 25 36  1  0  0  0  0
M  END
