Loprazolam
 OpenBabel04201808233D
Structure written by MMmdl.
 54 58  0  0  0  0  0  0  0  0999 V2000
    0.2257    2.2588   -0.0623 C   0  0  0  0  0  0  0  0  0  0  0  0
    0.0748    0.8641    0.1144 C   0  0  0  0  0  0  0  0  0  0  0  0
    1.2424   -0.0793    0.0692 C   0  0  0  0  0  0  0  0  0  0  0  0
    2.3751    0.0900    0.6700 N   0  0  0  0  0  0  0  0  0  0  0  0
    2.5610    1.2941    1.4763 C   0  0  0  0  0  0  0  0  0  0  0  0
    2.6094    2.4846    0.5573 C   0  0  0  0  0  0  0  0  0  0  0  0
    1.4926    2.8901   -0.1001 N   0  0  0  0  0  0  0  0  0  0  0  0
   -0.9375    3.0396   -0.1961 C   0  0  0  0  0  0  0  0  0  0  0  0
   -2.2144    2.4719   -0.1129 C   0  0  0  0  0  0  0  0  0  0  0  0
   -2.3476    1.1003    0.1041 C   0  0  0  0  0  0  0  0  0  0  0  0
   -1.2104    0.2930    0.2157 C   0  0  0  0  0  0  0  0  0  0  0  0
    3.6807    3.2081    0.3848 N   0  0  0  0  0  0  0  0  0  0  0  0
    3.2649    4.2146   -0.4566 C   0  0  0  0  0  0  0  0  0  0  0  0
    1.8125    4.0394   -0.7806 C   0  0  0  0  0  0  0  0  0  0  0  0
    3.9873    5.2259   -0.9618 C   0  0  0  0  0  0  0  0  0  0  0  0
    5.3241    5.6029   -0.8110 N   0  0  0  0  0  0  0  0  0  0  0  0
    6.3080    4.8558    0.0069 C   0  0  0  0  0  0  0  0  0  0  0  0
    7.3453    5.7973    0.6663 C   0  0  0  0  0  0  0  0  0  0  0  0
    8.0117    6.7721   -0.2292 N   0  0  0  0  0  0  0  0  0  0  0  0
    6.9680    7.4951   -0.9932 C   0  0  0  0  0  0  0  0  0  0  0  0
    5.9321    6.6090   -1.7187 C   0  0  0  0  0  0  0  0  0  0  0  0
    8.9619    6.1053   -1.1239 C   0  0  0  0  0  0  0  0  0  0  0  0
    1.0970   -1.3323   -0.7296 C   0  0  0  0  0  0  0  0  0  0  0  0
    1.1465    4.7590   -1.5078 O   0  0  0  0  0  0  0  0  0  0  0  0
    1.5316   -2.5278   -0.1380 C   0  0  0  0  0  0  0  0  0  0  0  0
    1.4017   -3.7353   -0.8246 C   0  0  0  0  0  0  0  0  0  0  0  0
    0.8479   -3.7533   -2.1037 C   0  0  0  0  0  0  0  0  0  0  0  0
    0.4334   -2.5624   -2.7044 C   0  0  0  0  0  0  0  0  0  0  0  0
    0.5610   -1.3475   -2.0244 C   0  0  0  0  0  0  0  0  0  0  0  0
    0.0838    0.0902   -2.8563 Cl  0  0  0  0  0  0  0  0  0  0  0  0
   -3.6857    0.5014    0.2008 N   0  3  0  0  0  0  0  0  0  0  0  0
   -3.7708   -0.7338    0.3324 O   0  0  0  0  0  0  0  0  0  0  0  0
   -4.6760    1.2546    0.1466 O   0  5  0  0  0  0  0  0  0  0  0  0
    3.5114    1.2170    2.0143 H   0  0  0  0  0  0  0  0  0  0  0  0
    1.7681    1.4101    2.2233 H   0  0  0  0  0  0  0  0  0  0  0  0
   -0.8807    4.1185   -0.3292 H   0  0  0  0  0  0  0  0  0  0  0  0
   -3.0836    3.1193   -0.2095 H   0  0  0  0  0  0  0  0  0  0  0  0
   -1.3209   -0.7775    0.3722 H   0  0  0  0  0  0  0  0  0  0  0  0
    3.4647    5.9111   -1.6328 H   0  0  0  0  0  0  0  0  0  0  0  0
    6.8097    4.1171   -0.6282 H   0  0  0  0  0  0  0  0  0  0  0  0
    5.8183    4.3133    0.8200 H   0  0  0  0  0  0  0  0  0  0  0  0
    8.0996    5.1981    1.1909 H   0  0  0  0  0  0  0  0  0  0  0  0
    6.8330    6.3727    1.4492 H   0  0  0  0  0  0  0  0  0  0  0  0
    7.4381    8.1749   -1.7146 H   0  0  0  0  0  0  0  0  0  0  0  0
    6.4314    8.1418   -0.2863 H   0  0  0  0  0  0  0  0  0  0  0  0
    5.1587    7.2644   -2.1377 H   0  0  0  0  0  0  0  0  0  0  0  0
    6.3994    6.0852   -2.5609 H   0  0  0  0  0  0  0  0  0  0  0  0
    9.4645    6.8427   -1.7592 H   0  0  0  0  0  0  0  0  0  0  0  0
    8.4978    5.3560   -1.7726 H   0  0  0  0  0  0  0  0  0  0  0  0
    9.7462    5.6109   -0.5402 H   0  0  0  0  0  0  0  0  0  0  0  0
    1.9633   -2.5230    0.8614 H   0  0  0  0  0  0  0  0  0  0  0  0
    1.7330   -4.6635   -0.3616 H   0  0  0  0  0  0  0  0  0  0  0  0
    0.7458   -4.6955   -2.6396 H   0  0  0  0  0  0  0  0  0  0  0  0
    0.0179   -2.5920   -3.7096 H   0  0  0  0  0  0  0  0  0  0  0  0
  1  2  2  0  0  0  0
  1  7  1  0  0  0  0
  1  8  1  0  0  0  0
  2  3  1  0  0  0  0
  2 11  1  0  0  0  0
  3  4  2  0  0  0  0
  3 23  1  0  0  0  0
  4  5  1  0  0  0  0
  5  6  1  0  0  0  0
  5 34  1  0  0  0  0
  5 35  1  0  0  0  0
  6  7  1  0  0  0  0
  6 12  2  0  0  0  0
  7 14  1  0  0  0  0
  8  9  2  0  0  0  0
  8 36  1  0  0  0  0
  9 10  1  0  0  0  0
  9 37  1  0  0  0  0
 10 11  2  0  0  0  0
 10 31  1  0  0  0  0
 11 38  1  0  0  0  0
 12 13  1  0  0  0  0
 13 14  1  0  0  0  0
 13 15  2  0  0  0  0
 14 24  2  0  0  0  0
 15 16  1  0  0  0  0
 15 39  1  0  0  0  0
 16 17  1  0  0  0  0
 16 21  1  0  0  0  0
 17 18  1  0  0  0  0
 17 40  1  0  0  0  0
 17 41  1  0  0  0  0
 18 19  1  0  0  0  0
 18 42  1  0  0  0  0
 18 43  1  0  0  0  0
 19 20  1  0  0  0  0
 19 22  1  0  0  0  0
 20 21  1  0  0  0  0
 20 44  1  0  0  0  0
 20 45  1  0  0  0  0
 21 46  1  0  0  0  0
 21 47  1  0  0  0  0
 22 48  1  0  0  0  0
 22 49  1  0  0  0  0
 22 50  1  0  0  0  0
 23 25  2  0  0  0  0
 23 29  1  0  0  0  0
 25 26  1  0  0  0  0
 25 51  1  0  0  0  0
 26 27  2  0  0  0  0
 26 52  1  0  0  0  0
 27 28  1  0  0  0  0
 27 53  1  0  0  0  0
 28 29  2  0  0  0  0
 28 54  1  0  0  0  0
 29 30  1  0  0  0  0
 31 32  2  0  0  0  0
 31 33  1  0  0  0  0
M  CHG  2  31   1  33  -1
M  END
