Ro14-7187
 OpenBabel04201808233D
Structure written by MMmdl.
 36 39  0  0  0  0  0  0  0  0999 V2000
    0.2463    2.2061    0.0868 C   0  0  0  0  0  0  0  0  0  0  0  0
    0.0498    0.8040    0.1250 C   0  0  0  0  0  0  0  0  0  0  0  0
    1.1189   -0.2450    0.1429 C   0  0  0  0  0  0  0  0  0  0  0  0
    2.2121   -0.1156    0.9209 C   0  0  0  0  0  0  0  0  0  0  0  0
    2.5195    1.0785    1.7659 C   0  0  0  0  0  0  0  0  0  0  0  0
    2.5870    2.3331    0.9767 C   0  0  0  0  0  0  0  0  0  0  0  0
    1.5375    2.7963    0.2033 N   0  0  0  0  0  0  0  0  0  0  0  0
   -0.8662    3.0652   -0.0154 C   0  0  0  0  0  0  0  0  0  0  0  0
   -2.1631    2.5576   -0.0862 C   0  0  0  0  0  0  0  0  0  0  0  0
   -2.3698    1.1876   -0.0481 C   0  0  0  0  0  0  0  0  0  0  0  0
   -1.2777    0.3253    0.0573 C   0  0  0  0  0  0  0  0  0  0  0  0
    3.5952    3.1816    0.9346 N   0  0  0  0  0  0  0  0  0  0  0  0
    3.2466    4.2048    0.1039 N   0  0  0  0  0  0  0  0  0  0  0  0
    2.0312    3.9697   -0.3579 C   0  0  0  0  0  0  0  0  0  0  0  0
    1.0592   -1.4879   -0.6744 C   0  0  0  0  0  0  0  0  0  0  0  0
    0.5443   -1.4368   -1.9774 C   0  0  0  0  0  0  0  0  0  0  0  0
    0.4677   -2.5950   -2.7546 C   0  0  0  0  0  0  0  0  0  0  0  0
    0.9011   -3.8141   -2.2360 C   0  0  0  0  0  0  0  0  0  0  0  0
    1.4098   -3.8781   -0.9399 C   0  0  0  0  0  0  0  0  0  0  0  0
    1.4875   -2.7213   -0.1610 C   0  0  0  0  0  0  0  0  0  0  0  0
    1.3652    4.7832   -1.4068 C   0  0  0  0  0  0  0  0  0  0  0  0
    2.9785   -0.8900    0.9311 H   0  0  0  0  0  0  0  0  0  0  0  0
    3.4895    0.9176    2.2527 H   0  0  0  0  0  0  0  0  0  0  0  0
    1.7877    1.1697    2.5775 H   0  0  0  0  0  0  0  0  0  0  0  0
   -0.7608    4.1469    0.0147 H   0  0  0  0  0  0  0  0  0  0  0  0
   -3.0114    3.2365   -0.1540 H   0  0  0  0  0  0  0  0  0  0  0  0
   -3.3795    0.7843   -0.0973 H   0  0  0  0  0  0  0  0  0  0  0  0
   -1.4816   -0.7456    0.0844 H   0  0  0  0  0  0  0  0  0  0  0  0
    0.2013   -0.4930   -2.3988 H   0  0  0  0  0  0  0  0  0  0  0  0
    0.0686   -2.5447   -3.7661 H   0  0  0  0  0  0  0  0  0  0  0  0
    0.8403   -4.7163   -2.8423 H   0  0  0  0  0  0  0  0  0  0  0  0
    1.7448   -4.8305   -0.5328 H   0  0  0  0  0  0  0  0  0  0  0  0
    1.8789   -2.7911    0.8529 H   0  0  0  0  0  0  0  0  0  0  0  0
    2.1193    5.2999   -2.0101 H   0  0  0  0  0  0  0  0  0  0  0  0
    0.7259    5.5480   -0.9571 H   0  0  0  0  0  0  0  0  0  0  0  0
    0.7735    4.1669   -2.0897 H   0  0  0  0  0  0  0  0  0  0  0  0
  1  2  2  0  0  0  0
  1  7  1  0  0  0  0
  1  8  1  0  0  0  0
  2  3  1  0  0  0  0
  2 11  1  0  0  0  0
  3  4  2  0  0  0  0
  3 15  1  0  0  0  0
  4  5  1  0  0  0  0
  4 22  1  0  0  0  0
  5  6  1  0  0  0  0
  5 23  1  0  0  0  0
  5 24  1  0  0  0  0
  6  7  1  0  0  0  0
  6 12  2  0  0  0  0
  7 14  1  0  0  0  0
  8  9  2  0  0  0  0
  8 25  1  0  0  0  0
  9 10  1  0  0  0  0
  9 26  1  0  0  0  0
 10 11  2  0  0  0  0
 10 27  1  0  0  0  0
 11 28  1  0  0  0  0
 12 13  1  0  0  0  0
 13 14  2  0  0  0  0
 14 21  1  0  0  0  0
 15 16  2  0  0  0  0
 15 20  1  0  0  0  0
 16 17  1  0  0  0  0
 16 29  1  0  0  0  0
 17 18  2  0  0  0  0
 17 30  1  0  0  0  0
 18 19  1  0  0  0  0
 18 31  1  0  0  0  0
 19 20  2  0  0  0  0
 19 32  1  0  0  0  0
 20 33  1  0  0  0  0
 21 34  1  0  0  0  0
 21 35  1  0  0  0  0
 21 36  1  0  0  0  0
M  END
