Ro14-0304
 OpenBabel04201808233D
Structure written by MMmdl.
 36 39  0  0  0  0  0  0  0  0999 V2000
    0.2442    2.2040    0.0922 C   0  0  0  0  0  0  0  0  0  0  0  0
    0.0520    0.8007    0.1409 C   0  0  0  0  0  0  0  0  0  0  0  0
    1.1259   -0.2425    0.1497 C   0  0  0  0  0  0  0  0  0  0  0  0
    2.2302   -0.1064    0.9102 C   0  0  0  0  0  0  0  0  0  0  0  0
    2.5447    1.0916    1.7470 C   0  0  0  0  0  0  0  0  0  0  0  0
    2.5964    2.3434    0.9522 C   0  0  0  0  0  0  0  0  0  0  0  0
    1.5354    2.7995    0.1902 N   0  0  0  0  0  0  0  0  0  0  0  0
   -0.8720    3.0587   -0.0027 C   0  0  0  0  0  0  0  0  0  0  0  0
   -2.1686    2.5457   -0.0570 C   0  0  0  0  0  0  0  0  0  0  0  0
   -2.3648    1.1747   -0.0079 C   0  0  0  0  0  0  0  0  0  0  0  0
   -1.2736    0.3131    0.0912 C   0  0  0  0  0  0  0  0  0  0  0  0
    3.6007    3.1953    0.8936 N   0  0  0  0  0  0  0  0  0  0  0  0
    3.2380    4.2133    0.0626 N   0  0  0  0  0  0  0  0  0  0  0  0
    2.0179    3.9717   -0.3831 C   0  0  0  0  0  0  0  0  0  0  0  0
    1.0612   -1.4853   -0.6649 C   0  0  0  0  0  0  0  0  0  0  0  0
    1.4770   -2.6998   -0.1002 C   0  0  0  0  0  0  0  0  0  0  0  0
    1.4387   -3.8789   -0.8504 C   0  0  0  0  0  0  0  0  0  0  0  0
    0.9890   -3.8569   -2.1709 C   0  0  0  0  0  0  0  0  0  0  0  0
    0.5783   -2.6551   -2.7451 C   0  0  0  0  0  0  0  0  0  0  0  0
    0.6176   -1.4824   -1.9944 C   0  0  0  0  0  0  0  0  0  0  0  0
   -3.9614    0.5345   -0.0651 Cl  0  0  0  0  0  0  0  0  0  0  0  0
    0.2318   -0.3366   -2.5778 F   0  0  0  0  0  0  0  0  0  0  0  0
    1.3366    4.7773   -1.4281 C   0  0  0  0  0  0  0  0  0  0  0  0
    2.9983   -0.8793    0.9139 H   0  0  0  0  0  0  0  0  0  0  0  0
    3.5220    0.9361    2.2210 H   0  0  0  0  0  0  0  0  0  0  0  0
    1.8237    1.1830    2.5682 H   0  0  0  0  0  0  0  0  0  0  0  0
   -0.7706    4.1410    0.0200 H   0  0  0  0  0  0  0  0  0  0  0  0
   -3.0143    3.2267   -0.1198 H   0  0  0  0  0  0  0  0  0  0  0  0
   -1.4660   -0.7581    0.1295 H   0  0  0  0  0  0  0  0  0  0  0  0
    1.8309   -2.7383    0.9289 H   0  0  0  0  0  0  0  0  0  0  0  0
    1.7617   -4.8173   -0.4020 H   0  0  0  0  0  0  0  0  0  0  0  0
    0.9613   -4.7767   -2.7526 H   0  0  0  0  0  0  0  0  0  0  0  0
    0.2311   -2.6265   -3.7742 H   0  0  0  0  0  0  0  0  0  0  0  0
    2.0816    5.2945   -2.0425 H   0  0  0  0  0  0  0  0  0  0  0  0
    0.6991    5.5415   -0.9748 H   0  0  0  0  0  0  0  0  0  0  0  0
    0.7401    4.1553   -2.1014 H   0  0  0  0  0  0  0  0  0  0  0  0
  1  2  2  0  0  0  0
  1  7  1  0  0  0  0
  1  8  1  0  0  0  0
  2  3  1  0  0  0  0
  2 11  1  0  0  0  0
  3  4  2  0  0  0  0
  3 15  1  0  0  0  0
  4  5  1  0  0  0  0
  4 24  1  0  0  0  0
  5  6  1  0  0  0  0
  5 25  1  0  0  0  0
  5 26  1  0  0  0  0
  6  7  1  0  0  0  0
  6 12  2  0  0  0  0
  7 14  1  0  0  0  0
  8  9  2  0  0  0  0
  8 27  1  0  0  0  0
  9 10  1  0  0  0  0
  9 28  1  0  0  0  0
 10 11  2  0  0  0  0
 10 21  1  0  0  0  0
 11 29  1  0  0  0  0
 12 13  1  0  0  0  0
 13 14  2  0  0  0  0
 14 23  1  0  0  0  0
 15 16  2  0  0  0  0
 15 20  1  0  0  0  0
 16 17  1  0  0  0  0
 16 30  1  0  0  0  0
 17 18  2  0  0  0  0
 17 31  1  0  0  0  0
 18 19  1  0  0  0  0
 18 32  1  0  0  0  0
 19 20  2  0  0  0  0
 19 33  1  0  0  0  0
 20 22  1  0  0  0  0
 23 34  1  0  0  0  0
 23 35  1  0  0  0  0
 23 36  1  0  0  0  0
M  END
