Ro14-2652
 OpenBabel04201808233D
Structure written by MMmdl.
 38 41  0  0  0  0  0  0  0  0999 V2000
    0.2454    2.2020    0.0851 C   0  0  0  0  0  0  0  0  0  0  0  0
    0.0500    0.7994    0.1365 C   0  0  0  0  0  0  0  0  0  0  0  0
    1.1230   -0.2442    0.1494 C   0  0  0  0  0  0  0  0  0  0  0  0
    2.2226   -0.1069    0.9165 C   0  0  0  0  0  0  0  0  0  0  0  0
    2.5311    1.0930    1.7539 C   0  0  0  0  0  0  0  0  0  0  0  0
    2.5904    2.3429    0.9558 C   0  0  0  0  0  0  0  0  0  0  0  0
    1.5394    2.7932    0.1767 N   0  0  0  0  0  0  0  0  0  0  0  0
   -0.8688    3.0601   -0.0006 C   0  0  0  0  0  0  0  0  0  0  0  0
   -2.1667    2.5498   -0.0501 C   0  0  0  0  0  0  0  0  0  0  0  0
   -2.3658    1.1787   -0.0037 C   0  0  0  0  0  0  0  0  0  0  0  0
   -1.2763    0.3144    0.0905 C   0  0  0  0  0  0  0  0  0  0  0  0
    3.5920    3.1977    0.9093 N   0  0  0  0  0  0  0  0  0  0  0  0
    3.2415    4.2055    0.0595 N   0  0  0  0  0  0  0  0  0  0  0  0
    2.0318    3.9528   -0.4178 C   0  0  0  0  0  0  0  0  0  0  0  0
    1.0614   -1.4868   -0.6654 C   0  0  0  0  0  0  0  0  0  0  0  0
    1.4731   -2.7016   -0.0986 C   0  0  0  0  0  0  0  0  0  0  0  0
    1.4373   -3.8809   -0.8486 C   0  0  0  0  0  0  0  0  0  0  0  0
    0.9942   -3.8587   -2.1713 C   0  0  0  0  0  0  0  0  0  0  0  0
    0.5877   -2.6567   -2.7479 C   0  0  0  0  0  0  0  0  0  0  0  0
    0.6246   -1.4838   -1.9973 C   0  0  0  0  0  0  0  0  0  0  0  0
   -3.9641    0.5423   -0.0554 Cl  0  0  0  0  0  0  0  0  0  0  0  0
    0.2432   -0.3378   -2.5830 F   0  0  0  0  0  0  0  0  0  0  0  0
    1.3358    4.7235   -1.4979 C   0  0  0  0  0  0  0  0  0  0  0  0
    2.1547    5.8363   -2.0029 N   0  0  0  0  0  0  0  0  0  0  0  0
    2.9913   -0.8791    0.9254 H   0  0  0  0  0  0  0  0  0  0  0  0
    3.5044    0.9379    2.2362 H   0  0  0  0  0  0  0  0  0  0  0  0
    1.8034    1.1872    2.5688 H   0  0  0  0  0  0  0  0  0  0  0  0
   -0.7654    4.1421    0.0279 H   0  0  0  0  0  0  0  0  0  0  0  0
   -3.0114    3.2325   -0.1064 H   0  0  0  0  0  0  0  0  0  0  0  0
   -1.4706   -0.7564    0.1294 H   0  0  0  0  0  0  0  0  0  0  0  0
    1.8218   -2.7405    0.9323 H   0  0  0  0  0  0  0  0  0  0  0  0
    1.7569   -4.8195   -0.3983 H   0  0  0  0  0  0  0  0  0  0  0  0
    0.9682   -4.7785   -2.7529 H   0  0  0  0  0  0  0  0  0  0  0  0
    0.2457   -2.6278   -3.7787 H   0  0  0  0  0  0  0  0  0  0  0  0
    0.4062    5.1434   -1.1020 H   0  0  0  0  0  0  0  0  0  0  0  0
    1.0937    4.0739   -2.3452 H   0  0  0  0  0  0  0  0  0  0  0  0
    1.6545    6.2460   -2.7989 H   0  0  0  0  0  0  0  0  0  0  0  0
    2.9948    5.4316   -2.4291 H   0  0  0  0  0  0  0  0  0  0  0  0
  1  2  2  0  0  0  0
  1  7  1  0  0  0  0
  1  8  1  0  0  0  0
  2  3  1  0  0  0  0
  2 11  1  0  0  0  0
  3  4  2  0  0  0  0
  3 15  1  0  0  0  0
  4  5  1  0  0  0  0
  4 25  1  0  0  0  0
  5  6  1  0  0  0  0
  5 26  1  0  0  0  0
  5 27  1  0  0  0  0
  6  7  1  0  0  0  0
  6 12  2  0  0  0  0
  7 14  1  0  0  0  0
  8  9  2  0  0  0  0
  8 28  1  0  0  0  0
  9 10  1  0  0  0  0
  9 29  1  0  0  0  0
 10 11  2  0  0  0  0
 10 21  1  0  0  0  0
 11 30  1  0  0  0  0
 12 13  1  0  0  0  0
 13 14  2  0  0  0  0
 14 23  1  0  0  0  0
 15 16  2  0  0  0  0
 15 20  1  0  0  0  0
 16 17  1  0  0  0  0
 16 31  1  0  0  0  0
 17 18  2  0  0  0  0
 17 32  1  0  0  0  0
 18 19  1  0  0  0  0
 18 33  1  0  0  0  0
 19 20  2  0  0  0  0
 19 34  1  0  0  0  0
 20 22  1  0  0  0  0
 23 24  1  0  0  0  0
 23 35  1  0  0  0  0
 23 36  1  0  0  0  0
 24 37  1  0  0  0  0
 24 38  1  0  0  0  0
M  END
