Ro15-9270
 OpenBabel04201808233D
Structure written by MMmdl.
 38 41  0  0  0  0  0  0  0  0999 V2000
    0.2450    2.1977    0.0773 C   0  0  0  0  0  0  0  0  0  0  0  0
    0.0429    0.7949    0.1384 C   0  0  0  0  0  0  0  0  0  0  0  0
    1.1143   -0.2508    0.1730 C   0  0  0  0  0  0  0  0  0  0  0  0
    2.2171   -0.1091    0.9345 C   0  0  0  0  0  0  0  0  0  0  0  0
    2.5282    1.0938    1.7644 C   0  0  0  0  0  0  0  0  0  0  0  0
    2.5910    2.3373    0.9582 C   0  0  0  0  0  0  0  0  0  0  0  0
    1.5393    2.7874    0.1804 N   0  0  0  0  0  0  0  0  0  0  0  0
   -0.8632    3.0617   -0.0389 C   0  0  0  0  0  0  0  0  0  0  0  0
   -2.1656    2.5629   -0.1064 C   0  0  0  0  0  0  0  0  0  0  0  0
   -2.3740    1.1872   -0.0497 C   0  0  0  0  0  0  0  0  0  0  0  0
   -1.2853    0.3130    0.0722 C   0  0  0  0  0  0  0  0  0  0  0  0
    3.5986    3.1855    0.9005 N   0  0  0  0  0  0  0  0  0  0  0  0
    3.2489    4.1934    0.0520 N   0  0  0  0  0  0  0  0  0  0  0  0
    2.0335    3.9490   -0.4050 C   0  0  0  0  0  0  0  0  0  0  0  0
    1.0619   -1.5049   -0.6296 C   0  0  0  0  0  0  0  0  0  0  0  0
    1.4923   -2.6903   -0.0094 C   0  0  0  0  0  0  0  0  0  0  0  0
    1.4705   -3.9048   -0.6985 C   0  0  0  0  0  0  0  0  0  0  0  0
    1.0210   -3.9515   -2.0159 C   0  0  0  0  0  0  0  0  0  0  0  0
    0.5945   -2.7833   -2.6481 C   0  0  0  0  0  0  0  0  0  0  0  0
    0.6142   -1.5641   -1.9625 C   0  0  0  0  0  0  0  0  0  0  0  0
    0.0980   -0.1528   -2.8223 Cl  0  0  0  0  0  0  0  0  0  0  0  0
    1.3685    4.7402   -1.4715 C   0  0  0  0  0  0  0  0  0  0  0  0
   -3.7403    0.6521   -0.1140 N   0  3  0  0  0  0  0  0  0  0  0  0
   -3.9017   -0.5757    0.0189 O   0  0  0  0  0  0  0  0  0  0  0  0
   -4.6794    1.4494   -0.2988 O   0  5  0  0  0  0  0  0  0  0  0  0
    2.9824   -0.8845    0.9479 H   0  0  0  0  0  0  0  0  0  0  0  0
    3.5003    0.9390    2.2489 H   0  0  0  0  0  0  0  0  0  0  0  0
    1.7996    1.1951    2.5776 H   0  0  0  0  0  0  0  0  0  0  0  0
   -0.7507    4.1432   -0.0237 H   0  0  0  0  0  0  0  0  0  0  0  0
   -2.9952    3.2621   -0.1847 H   0  0  0  0  0  0  0  0  0  0  0  0
   -1.4728   -0.7584    0.1153 H   0  0  0  0  0  0  0  0  0  0  0  0
    1.8450   -2.6760    1.0212 H   0  0  0  0  0  0  0  0  0  0  0  0
    1.8050   -4.8157   -0.2046 H   0  0  0  0  0  0  0  0  0  0  0  0
    1.0045   -4.8982   -2.5530 H   0  0  0  0  0  0  0  0  0  0  0  0
    0.2508   -2.8314   -3.6793 H   0  0  0  0  0  0  0  0  0  0  0  0
    2.1235    5.2402   -2.0878 H   0  0  0  0  0  0  0  0  0  0  0  0
    0.7325    5.5174   -1.0387 H   0  0  0  0  0  0  0  0  0  0  0  0
    0.7739    4.1103   -2.1392 H   0  0  0  0  0  0  0  0  0  0  0  0
  1  2  2  0  0  0  0
  1  7  1  0  0  0  0
  1  8  1  0  0  0  0
  2  3  1  0  0  0  0
  2 11  1  0  0  0  0
  3  4  2  0  0  0  0
  3 15  1  0  0  0  0
  4  5  1  0  0  0  0
  4 26  1  0  0  0  0
  5  6  1  0  0  0  0
  5 27  1  0  0  0  0
  5 28  1  0  0  0  0
  6  7  1  0  0  0  0
  6 12  2  0  0  0  0
  7 14  1  0  0  0  0
  8  9  2  0  0  0  0
  8 29  1  0  0  0  0
  9 10  1  0  0  0  0
  9 30  1  0  0  0  0
 10 11  2  0  0  0  0
 10 23  1  0  0  0  0
 11 31  1  0  0  0  0
 12 13  1  0  0  0  0
 13 14  2  0  0  0  0
 14 22  1  0  0  0  0
 15 16  2  0  0  0  0
 15 20  1  0  0  0  0
 16 17  1  0  0  0  0
 16 32  1  0  0  0  0
 17 18  2  0  0  0  0
 17 33  1  0  0  0  0
 18 19  1  0  0  0  0
 18 34  1  0  0  0  0
 19 20  2  0  0  0  0
 19 35  1  0  0  0  0
 20 21  1  0  0  0  0
 22 36  1  0  0  0  0
 22 37  1  0  0  0  0
 22 38  1  0  0  0  0
 23 24  2  0  0  0  0
 23 25  1  0  0  0  0
M  CHG  2  23   1  25  -1
M  END
