Ro07-9957
 OpenBabel04201808233D
Structure written by MMmdl.
 33 35  0  0  0  0  0  0  0  0999 V2000
   -2.1327    2.4835   -0.1744 C   0  0  0  0  0  0  0  0  0  0  0  0
   -2.3490    1.1239    0.0026 C   0  0  0  0  0  0  0  0  0  0  0  0
   -1.2686    0.2649    0.1790 C   0  0  0  0  0  0  0  0  0  0  0  0
    0.0482    0.7680    0.1821 C   0  0  0  0  0  0  0  0  0  0  0  0
    0.2871    2.1534    0.0518 C   0  0  0  0  0  0  0  0  0  0  0  0
   -0.8284    2.9891   -0.1519 C   0  0  0  0  0  0  0  0  0  0  0  0
    1.1530   -0.2401    0.2459 C   0  0  0  0  0  0  0  0  0  0  0  0
    2.2055   -0.1359    0.9907 N   0  0  0  0  0  0  0  0  0  0  0  0
    2.3179    1.0741    1.8050 C   0  0  0  0  0  0  0  0  0  0  0  0
    2.6412    2.2456    0.8873 C   0  0  0  0  0  0  0  0  0  0  0  0
    1.5941    2.7436    0.1080 N   0  0  0  0  0  0  0  0  0  0  0  0
    1.0478   -1.4459   -0.6249 C   0  0  0  0  0  0  0  0  0  0  0  0
    3.7749    2.7417    0.8841 O   0  0  0  0  0  0  0  0  0  0  0  0
   -4.2848    0.3706   -0.0116 I   0  0  0  0  0  0  0  0  0  0  0  0
    1.4252   -2.7028   -0.1341 C   0  0  0  0  0  0  0  0  0  0  0  0
    1.3144   -3.8296   -0.9526 C   0  0  0  0  0  0  0  0  0  0  0  0
    0.8256   -3.7065   -2.2546 C   0  0  0  0  0  0  0  0  0  0  0  0
    0.4447   -2.4561   -2.7421 C   0  0  0  0  0  0  0  0  0  0  0  0
    0.5540   -1.3324   -1.9263 C   0  0  0  0  0  0  0  0  0  0  0  0
    0.2050   -0.1397   -2.4320 F   0  0  0  0  0  0  0  0  0  0  0  0
    1.8295    3.9863   -0.6244 C   0  0  0  0  0  0  0  0  0  0  0  0
   -2.9632    3.1719   -0.3187 H   0  0  0  0  0  0  0  0  0  0  0  0
   -1.4471   -0.8007    0.3082 H   0  0  0  0  0  0  0  0  0  0  0  0
   -0.7166    4.0663   -0.2602 H   0  0  0  0  0  0  0  0  0  0  0  0
    3.1523    0.9472    2.5037 H   0  0  0  0  0  0  0  0  0  0  0  0
    1.4294    1.2706    2.4152 H   0  0  0  0  0  0  0  0  0  0  0  0
    1.7944   -2.8205    0.8824 H   0  0  0  0  0  0  0  0  0  0  0  0
    1.6069   -4.8075   -0.5728 H   0  0  0  0  0  0  0  0  0  0  0  0
    0.7412   -4.5869   -2.8896 H   0  0  0  0  0  0  0  0  0  0  0  0
    0.0666   -2.3529   -3.7556 H   0  0  0  0  0  0  0  0  0  0  0  0
    2.8972    4.1407   -0.8079 H   0  0  0  0  0  0  0  0  0  0  0  0
    1.4646    4.8272   -0.0265 H   0  0  0  0  0  0  0  0  0  0  0  0
    1.3268    3.9564   -1.5964 H   0  0  0  0  0  0  0  0  0  0  0  0
  1  2  2  0  0  0  0
  1  6  1  0  0  0  0
  1 22  1  0  0  0  0
  2  3  1  0  0  0  0
  2 14  1  0  0  0  0
  3  4  2  0  0  0  0
  3 23  1  0  0  0  0
  4  5  1  0  0  0  0
  4  7  1  0  0  0  0
  5  6  2  0  0  0  0
  5 11  1  0  0  0  0
  6 24  1  0  0  0  0
  7  8  2  0  0  0  0
  7 12  1  0  0  0  0
  8  9  1  0  0  0  0
  9 10  1  0  0  0  0
  9 25  1  0  0  0  0
  9 26  1  0  0  0  0
 10 11  1  0  0  0  0
 10 13  2  0  0  0  0
 11 21  1  0  0  0  0
 12 15  2  0  0  0  0
 12 19  1  0  0  0  0
 15 16  1  0  0  0  0
 15 27  1  0  0  0  0
 16 17  2  0  0  0  0
 16 28  1  0  0  0  0
 17 18  1  0  0  0  0
 17 29  1  0  0  0  0
 18 19  2  0  0  0  0
 18 30  1  0  0  0  0
 19 20  1  0  0  0  0
 21 31  1  0  0  0  0
 21 32  1  0  0  0  0
 21 33  1  0  0  0  0
M  END
