Ro15-2201
 OpenBabel04201808233D
Structure written by MMmdl.
 40 43  0  0  0  0  0  0  0  0999 V2000
    0.2387    2.2039    0.1199 C   0  0  0  0  0  0  0  0  0  0  0  0
    0.0503    0.8011    0.1502 C   0  0  0  0  0  0  0  0  0  0  0  0
    1.1252   -0.2429    0.1473 C   0  0  0  0  0  0  0  0  0  0  0  0
    2.2415   -0.1072    0.8893 C   0  0  0  0  0  0  0  0  0  0  0  0
    2.5557    1.0751    1.7410 C   0  0  0  0  0  0  0  0  0  0  0  0
    2.6165    2.3365    0.9585 C   0  0  0  0  0  0  0  0  0  0  0  0
    1.5202    2.8131    0.2593 N   0  0  0  0  0  0  0  0  0  0  0  0
   -0.8739    3.0578   -0.0411 C   0  0  0  0  0  0  0  0  0  0  0  0
   -2.1667    2.5438   -0.1323 C   0  0  0  0  0  0  0  0  0  0  0  0
   -2.3689    1.1740   -0.0693 C   0  0  0  0  0  0  0  0  0  0  0  0
   -1.2749    0.3174    0.0657 C   0  0  0  0  0  0  0  0  0  0  0  0
    3.6282    3.2774    0.7970 C   0  0  0  0  0  0  0  0  0  0  0  0
    3.1534    4.3360    0.0427 N   0  0  0  0  0  0  0  0  0  0  0  0
    1.9037    4.0402   -0.2380 C   0  0  0  0  0  0  0  0  0  0  0  0
    1.0578   -1.4843   -0.6719 C   0  0  0  0  0  0  0  0  0  0  0  0
    0.5406   -1.4299   -1.9739 C   0  0  0  0  0  0  0  0  0  0  0  0
    0.4583   -2.5872   -2.7520 C   0  0  0  0  0  0  0  0  0  0  0  0
    0.8888   -3.8082   -2.2354 C   0  0  0  0  0  0  0  0  0  0  0  0
    1.4006   -3.8751   -0.9405 C   0  0  0  0  0  0  0  0  0  0  0  0
    1.4838   -2.7194   -0.1606 C   0  0  0  0  0  0  0  0  0  0  0  0
    5.0093    3.1904    1.3079 C   0  0  0  0  0  0  0  0  0  0  0  0
    5.4116    2.2384    1.9781 O   0  0  0  0  0  0  0  0  0  0  0  0
    5.8984    4.1810    0.9708 O   0  0  0  0  0  0  0  0  0  0  0  0
    5.4405    5.5114    0.6762 C   0  0  0  0  0  0  0  0  0  0  0  0
    3.0134   -0.8762    0.8720 H   0  0  0  0  0  0  0  0  0  0  0  0
    3.5047    0.8888    2.2535 H   0  0  0  0  0  0  0  0  0  0  0  0
    1.8127    1.1648    2.5443 H   0  0  0  0  0  0  0  0  0  0  0  0
   -0.7694    4.1414   -0.0543 H   0  0  0  0  0  0  0  0  0  0  0  0
   -3.0152    3.2173   -0.2399 H   0  0  0  0  0  0  0  0  0  0  0  0
   -3.3756    0.7652   -0.1344 H   0  0  0  0  0  0  0  0  0  0  0  0
   -1.4751   -0.7542    0.0937 H   0  0  0  0  0  0  0  0  0  0  0  0
    1.2426    4.6589   -0.8321 H   0  0  0  0  0  0  0  0  0  0  0  0
    0.2001   -0.4842   -2.3930 H   0  0  0  0  0  0  0  0  0  0  0  0
    0.0571   -2.5346   -3.7626 H   0  0  0  0  0  0  0  0  0  0  0  0
    0.8239   -4.7096   -2.8425 H   0  0  0  0  0  0  0  0  0  0  0  0
    1.7335   -4.8291   -0.5353 H   0  0  0  0  0  0  0  0  0  0  0  0
    1.8780   -2.7907    0.8521 H   0  0  0  0  0  0  0  0  0  0  0  0
    6.2356    6.2033    0.9694 H   0  0  0  0  0  0  0  0  0  0  0  0
    4.5448    5.7710    1.2481 H   0  0  0  0  0  0  0  0  0  0  0  0
    5.2801    5.6163   -0.3998 H   0  0  0  0  0  0  0  0  0  0  0  0
  1  2  2  0  0  0  0
  1  7  1  0  0  0  0
  1  8  1  0  0  0  0
  2  3  1  0  0  0  0
  2 11  1  0  0  0  0
  3  4  2  0  0  0  0
  3 15  1  0  0  0  0
  4  5  1  0  0  0  0
  4 25  1  0  0  0  0
  5  6  1  0  0  0  0
  5 26  1  0  0  0  0
  5 27  1  0  0  0  0
  6  7  1  0  0  0  0
  6 12  2  0  0  0  0
  7 14  1  0  0  0  0
  8  9  2  0  0  0  0
  8 28  1  0  0  0  0
  9 10  1  0  0  0  0
  9 29  1  0  0  0  0
 10 11  2  0  0  0  0
 10 30  1  0  0  0  0
 11 31  1  0  0  0  0
 12 13  1  0  0  0  0
 12 21  1  0  0  0  0
 13 14  2  0  0  0  0
 14 32  1  0  0  0  0
 15 16  2  0  0  0  0
 15 20  1  0  0  0  0
 16 17  1  0  0  0  0
 16 33  1  0  0  0  0
 17 18  2  0  0  0  0
 17 34  1  0  0  0  0
 18 19  1  0  0  0  0
 18 35  1  0  0  0  0
 19 20  2  0  0  0  0
 19 36  1  0  0  0  0
 20 37  1  0  0  0  0
 21 22  2  0  0  0  0
 21 23  1  0  0  0  0
 23 24  1  0  0  0  0
 24 38  1  0  0  0  0
 24 39  1  0  0  0  0
 24 40  1  0  0  0  0
M  END
