Ro15-0791
 OpenBabel04201808233D
Structure written by MMmdl.
 43 46  0  0  0  0  0  0  0  0999 V2000
    0.2385    2.2042    0.1199 C   0  0  0  0  0  0  0  0  0  0  0  0
    0.0494    0.8013    0.1501 C   0  0  0  0  0  0  0  0  0  0  0  0
    1.1238   -0.2432    0.1473 C   0  0  0  0  0  0  0  0  0  0  0  0
    2.2400   -0.1080    0.8898 C   0  0  0  0  0  0  0  0  0  0  0  0
    2.5538    1.0748    1.7411 C   0  0  0  0  0  0  0  0  0  0  0  0
    2.6171    2.3347    0.9563 C   0  0  0  0  0  0  0  0  0  0  0  0
    1.5206    2.8124    0.2583 N   0  0  0  0  0  0  0  0  0  0  0  0
   -0.8735    3.0587   -0.0402 C   0  0  0  0  0  0  0  0  0  0  0  0
   -2.1667    2.5454   -0.1308 C   0  0  0  0  0  0  0  0  0  0  0  0
   -2.3696    1.1757   -0.0682 C   0  0  0  0  0  0  0  0  0  0  0  0
   -1.2760    0.3184    0.0658 C   0  0  0  0  0  0  0  0  0  0  0  0
    3.6318    3.2717    0.7897 C   0  0  0  0  0  0  0  0  0  0  0  0
    3.1571    4.3304    0.0362 N   0  0  0  0  0  0  0  0  0  0  0  0
    1.9056    4.0385   -0.2402 C   0  0  0  0  0  0  0  0  0  0  0  0
    1.0569   -1.4849   -0.6717 C   0  0  0  0  0  0  0  0  0  0  0  0
    0.5402   -1.4308   -1.9739 C   0  0  0  0  0  0  0  0  0  0  0  0
    0.4599   -2.5878   -2.7524 C   0  0  0  0  0  0  0  0  0  0  0  0
    0.8914   -3.8085   -2.2358 C   0  0  0  0  0  0  0  0  0  0  0  0
    1.4023   -3.8752   -0.9406 C   0  0  0  0  0  0  0  0  0  0  0  0
    1.4837   -2.7195   -0.1604 C   0  0  0  0  0  0  0  0  0  0  0  0
    5.0145    3.1760    1.2953 C   0  0  0  0  0  0  0  0  0  0  0  0
    5.4098    2.2202    1.9646 O   0  0  0  0  0  0  0  0  0  0  0  0
    5.9111    4.1625    0.9684 O   0  0  0  0  0  0  0  0  0  0  0  0
    5.4764    5.4872    0.6007 C   0  0  0  0  0  0  0  0  0  0  0  0
    6.6058    6.4486    0.9232 C   0  0  0  0  0  0  0  0  0  0  0  0
    3.0117   -0.8772    0.8731 H   0  0  0  0  0  0  0  0  0  0  0  0
    3.5015    0.8882    2.2560 H   0  0  0  0  0  0  0  0  0  0  0  0
    1.8092    1.1663    2.5426 H   0  0  0  0  0  0  0  0  0  0  0  0
   -0.7683    4.1424   -0.0533 H   0  0  0  0  0  0  0  0  0  0  0  0
   -3.0148    3.2195   -0.2377 H   0  0  0  0  0  0  0  0  0  0  0  0
   -3.3764    0.7675   -0.1328 H   0  0  0  0  0  0  0  0  0  0  0  0
   -1.4767   -0.7531    0.0935 H   0  0  0  0  0  0  0  0  0  0  0  0
    1.2444    4.6589   -0.8325 H   0  0  0  0  0  0  0  0  0  0  0  0
    0.1994   -0.4852   -2.3931 H   0  0  0  0  0  0  0  0  0  0  0  0
    0.0596   -2.5355   -3.7634 H   0  0  0  0  0  0  0  0  0  0  0  0
    0.8279   -4.7098   -2.8432 H   0  0  0  0  0  0  0  0  0  0  0  0
    1.7362   -4.8288   -0.5354 H   0  0  0  0  0  0  0  0  0  0  0  0
    1.8777   -2.7906    0.8524 H   0  0  0  0  0  0  0  0  0  0  0  0
    4.5839    5.7758    1.1654 H   0  0  0  0  0  0  0  0  0  0  0  0
    5.2814    5.5119   -0.4755 H   0  0  0  0  0  0  0  0  0  0  0  0
    6.3356    7.4728    0.6518 H   0  0  0  0  0  0  0  0  0  0  0  0
    7.5169    6.1682    0.3844 H   0  0  0  0  0  0  0  0  0  0  0  0
    6.8449    6.4167    1.9913 H   0  0  0  0  0  0  0  0  0  0  0  0
  1  2  2  0  0  0  0
  1  7  1  0  0  0  0
  1  8  1  0  0  0  0
  2  3  1  0  0  0  0
  2 11  1  0  0  0  0
  3  4  2  0  0  0  0
  3 15  1  0  0  0  0
  4  5  1  0  0  0  0
  4 26  1  0  0  0  0
  5  6  1  0  0  0  0
  5 27  1  0  0  0  0
  5 28  1  0  0  0  0
  6  7  1  0  0  0  0
  6 12  2  0  0  0  0
  7 14  1  0  0  0  0
  8  9  2  0  0  0  0
  8 29  1  0  0  0  0
  9 10  1  0  0  0  0
  9 30  1  0  0  0  0
 10 11  2  0  0  0  0
 10 31  1  0  0  0  0
 11 32  1  0  0  0  0
 12 13  1  0  0  0  0
 12 21  1  0  0  0  0
 13 14  2  0  0  0  0
 14 33  1  0  0  0  0
 15 16  2  0  0  0  0
 15 20  1  0  0  0  0
 16 17  1  0  0  0  0
 16 34  1  0  0  0  0
 17 18  2  0  0  0  0
 17 35  1  0  0  0  0
 18 19  1  0  0  0  0
 18 36  1  0  0  0  0
 19 20  2  0  0  0  0
 19 37  1  0  0  0  0
 20 38  1  0  0  0  0
 21 22  2  0  0  0  0
 21 23  1  0  0  0  0
 23 24  1  0  0  0  0
 24 25  1  0  0  0  0
 24 39  1  0  0  0  0
 24 40  1  0  0  0  0
 25 41  1  0  0  0  0
 25 42  1  0  0  0  0
 25 43  1  0  0  0  0
M  END
