Ro15-2200
 OpenBabel04201808233D
Structure written by MMmdl.
 43 46  0  0  0  0  0  0  0  0999 V2000
    0.2385    2.2025    0.1188 C   0  0  0  0  0  0  0  0  0  0  0  0
    0.0489    0.7997    0.1539 C   0  0  0  0  0  0  0  0  0  0  0  0
    1.1232   -0.2437    0.1545 C   0  0  0  0  0  0  0  0  0  0  0  0
    2.2421   -0.1070    0.8923 C   0  0  0  0  0  0  0  0  0  0  0  0
    2.5577    1.0775    1.7407 C   0  0  0  0  0  0  0  0  0  0  0  0
    2.6181    2.3362    0.9537 C   0  0  0  0  0  0  0  0  0  0  0  0
    1.5206    2.8115    0.2554 N   0  0  0  0  0  0  0  0  0  0  0  0
   -0.8733    3.0566   -0.0457 C   0  0  0  0  0  0  0  0  0  0  0  0
   -2.1662    2.5432   -0.1368 C   0  0  0  0  0  0  0  0  0  0  0  0
   -2.3694    1.1737   -0.0697 C   0  0  0  0  0  0  0  0  0  0  0  0
   -1.2764    0.3166    0.0693 C   0  0  0  0  0  0  0  0  0  0  0  0
    3.6309    3.2752    0.7866 C   0  0  0  0  0  0  0  0  0  0  0  0
    3.1551    4.3313    0.0303 N   0  0  0  0  0  0  0  0  0  0  0  0
    1.9044    4.0366   -0.2464 C   0  0  0  0  0  0  0  0  0  0  0  0
    1.0563   -1.4847   -0.6630 C   0  0  0  0  0  0  0  0  0  0  0  0
    1.4935   -2.6977   -0.1113 C   0  0  0  0  0  0  0  0  0  0  0  0
    1.4470   -3.8752   -0.8638 C   0  0  0  0  0  0  0  0  0  0  0  0
    0.9675   -3.8527   -2.1738 C   0  0  0  0  0  0  0  0  0  0  0  0
    0.5348   -2.6523   -2.7350 C   0  0  0  0  0  0  0  0  0  0  0  0
    0.5825   -1.4813   -1.9819 C   0  0  0  0  0  0  0  0  0  0  0  0
    5.0132    3.1844    1.2940 C   0  0  0  0  0  0  0  0  0  0  0  0
    5.4102    2.2312    1.9659 O   0  0  0  0  0  0  0  0  0  0  0  0
    5.9071    4.1732    0.9666 O   0  0  0  0  0  0  0  0  0  0  0  0
    5.4683    5.4954    0.5944 C   0  0  0  0  0  0  0  0  0  0  0  0
    6.5939    6.4620    0.9146 C   0  0  0  0  0  0  0  0  0  0  0  0
    0.1726   -0.3372   -2.5521 F   0  0  0  0  0  0  0  0  0  0  0  0
    3.0121   -0.8781    0.8779 H   0  0  0  0  0  0  0  0  0  0  0  0
    3.5072    0.8922    2.2528 H   0  0  0  0  0  0  0  0  0  0  0  0
    1.8158    1.1699    2.5443 H   0  0  0  0  0  0  0  0  0  0  0  0
   -0.7682    4.1400   -0.0624 H   0  0  0  0  0  0  0  0  0  0  0  0
   -3.0142    3.2170   -0.2473 H   0  0  0  0  0  0  0  0  0  0  0  0
   -3.3765    0.7657   -0.1343 H   0  0  0  0  0  0  0  0  0  0  0  0
   -1.4796   -0.7540    0.1018 H   0  0  0  0  0  0  0  0  0  0  0  0
    1.2430    4.6544   -0.8410 H   0  0  0  0  0  0  0  0  0  0  0  0
    1.8704   -2.7353    0.9097 H   0  0  0  0  0  0  0  0  0  0  0  0
    1.7868   -4.8123   -0.4255 H   0  0  0  0  0  0  0  0  0  0  0  0
    0.9331   -4.7710   -2.7574 H   0  0  0  0  0  0  0  0  0  0  0  0
    0.1637   -2.6235   -3.7556 H   0  0  0  0  0  0  0  0  0  0  0  0
    4.5743    5.7825    1.1574 H   0  0  0  0  0  0  0  0  0  0  0  0
    5.2742    5.5162   -0.4820 H   0  0  0  0  0  0  0  0  0  0  0  0
    6.3201    7.4843    0.6394 H   0  0  0  0  0  0  0  0  0  0  0  0
    7.5066    6.1831    0.3774 H   0  0  0  0  0  0  0  0  0  0  0  0
    6.8324    6.4346    1.9830 H   0  0  0  0  0  0  0  0  0  0  0  0
  1  2  2  0  0  0  0
  1  7  1  0  0  0  0
  1  8  1  0  0  0  0
  2  3  1  0  0  0  0
  2 11  1  0  0  0  0
  3  4  2  0  0  0  0
  3 15  1  0  0  0  0
  4  5  1  0  0  0  0
  4 27  1  0  0  0  0
  5  6  1  0  0  0  0
  5 28  1  0  0  0  0
  5 29  1  0  0  0  0
  6  7  1  0  0  0  0
  6 12  2  0  0  0  0
  7 14  1  0  0  0  0
  8  9  2  0  0  0  0
  8 30  1  0  0  0  0
  9 10  1  0  0  0  0
  9 31  1  0  0  0  0
 10 11  2  0  0  0  0
 10 32  1  0  0  0  0
 11 33  1  0  0  0  0
 12 13  1  0  0  0  0
 12 21  1  0  0  0  0
 13 14  2  0  0  0  0
 14 34  1  0  0  0  0
 15 16  2  0  0  0  0
 15 20  1  0  0  0  0
 16 17  1  0  0  0  0
 16 35  1  0  0  0  0
 17 18  2  0  0  0  0
 17 36  1  0  0  0  0
 18 19  1  0  0  0  0
 18 37  1  0  0  0  0
 19 20  2  0  0  0  0
 19 38  1  0  0  0  0
 20 26  1  0  0  0  0
 21 22  2  0  0  0  0
 21 23  1  0  0  0  0
 23 24  1  0  0  0  0
 24 25  1  0  0  0  0
 24 39  1  0  0  0  0
 24 40  1  0  0  0  0
 25 41  1  0  0  0  0
 25 42  1  0  0  0  0
 25 43  1  0  0  0  0
M  END
