Ro22-1251
 OpenBabel04201808233D
Structure written by MMmdl.
 37 40  0  0  0  0  0  0  0  0999 V2000
    0.2781    2.1690    0.0398 C   0  0  0  0  0  0  0  0  0  0  0  0
    0.0316    0.7797    0.1328 C   0  0  0  0  0  0  0  0  0  0  0  0
    1.1418   -0.2316    0.2112 C   0  0  0  0  0  0  0  0  0  0  0  0
    2.1895   -0.1348    0.9671 N   0  0  0  0  0  0  0  0  0  0  0  0
    2.3680    1.0573    1.7944 C   0  0  0  0  0  0  0  0  0  0  0  0
    2.6088    2.2638    0.9485 C   0  0  0  0  0  0  0  0  0  0  0  0
    1.6299    2.7602    0.1070 C   0  0  0  0  0  0  0  0  0  0  0  0
   -0.8410    3.0210   -0.0900 C   0  0  0  0  0  0  0  0  0  0  0  0
   -2.1476    2.5248   -0.1009 C   0  0  0  0  0  0  0  0  0  0  0  0
   -2.3648    1.1598    0.0253 C   0  0  0  0  0  0  0  0  0  0  0  0
   -1.2879    0.2871    0.1458 C   0  0  0  0  0  0  0  0  0  0  0  0
    1.0441   -1.4532   -0.6531 C   0  0  0  0  0  0  0  0  0  0  0  0
   -3.9718    0.5443    0.0305 Cl  0  0  0  0  0  0  0  0  0  0  0  0
    3.8110    2.9384    0.9378 C   0  0  0  0  0  0  0  0  0  0  0  0
    4.0544    4.0232    0.1733 N   0  0  0  0  0  0  0  0  0  0  0  0
    3.0484    4.4349   -0.6179 C   0  0  0  0  0  0  0  0  0  0  0  0
    1.8373    3.8511   -0.6723 N   0  0  0  0  0  0  0  0  0  0  0  0
    3.2723    5.6540   -1.4571 C   0  0  0  0  0  0  0  0  0  0  0  0
    0.5436   -1.3750   -1.9591 C   0  0  0  0  0  0  0  0  0  0  0  0
    0.4712   -2.5253   -2.7478 C   0  0  0  0  0  0  0  0  0  0  0  0
    0.9045   -3.7503   -2.2406 C   0  0  0  0  0  0  0  0  0  0  0  0
    1.4172   -3.8291   -0.9461 C   0  0  0  0  0  0  0  0  0  0  0  0
    1.4925   -2.6823   -0.1534 C   0  0  0  0  0  0  0  0  0  0  0  0
    3.2305    0.8819    2.4487 H   0  0  0  0  0  0  0  0  0  0  0  0
    1.5182    1.2110    2.4720 H   0  0  0  0  0  0  0  0  0  0  0  0
   -0.6991    4.0996   -0.1682 H   0  0  0  0  0  0  0  0  0  0  0  0
   -2.9828    3.2147   -0.1970 H   0  0  0  0  0  0  0  0  0  0  0  0
   -1.4788   -0.7787    0.2511 H   0  0  0  0  0  0  0  0  0  0  0  0
    4.6423    2.6168    1.5622 H   0  0  0  0  0  0  0  0  0  0  0  0
    2.6841    5.5998   -2.3782 H   0  0  0  0  0  0  0  0  0  0  0  0
    4.3281    5.7457   -1.7295 H   0  0  0  0  0  0  0  0  0  0  0  0
    2.9728    6.5455   -0.8986 H   0  0  0  0  0  0  0  0  0  0  0  0
    0.2183   -0.4271   -2.3819 H   0  0  0  0  0  0  0  0  0  0  0  0
    0.0802   -2.4648   -3.7622 H   0  0  0  0  0  0  0  0  0  0  0  0
    0.8475   -4.6453   -2.8583 H   0  0  0  0  0  0  0  0  0  0  0  0
    1.7602   -4.7848   -0.5535 H   0  0  0  0  0  0  0  0  0  0  0  0
    1.8945   -2.7549    0.8552 H   0  0  0  0  0  0  0  0  0  0  0  0
  1  2  2  0  0  0  0
  1  7  1  0  0  0  0
  1  8  1  0  0  0  0
  2  3  1  0  0  0  0
  2 11  1  0  0  0  0
  3  4  2  0  0  0  0
  3 12  1  0  0  0  0
  4  5  1  0  0  0  0
  5  6  1  0  0  0  0
  5 24  1  0  0  0  0
  5 25  1  0  0  0  0
  6  7  2  0  0  0  0
  6 14  1  0  0  0  0
  7 17  1  0  0  0  0
  8  9  2  0  0  0  0
  8 26  1  0  0  0  0
  9 10  1  0  0  0  0
  9 27  1  0  0  0  0
 10 11  2  0  0  0  0
 10 13  1  0  0  0  0
 11 28  1  0  0  0  0
 12 19  2  0  0  0  0
 12 23  1  0  0  0  0
 14 15  2  0  0  0  0
 14 29  1  0  0  0  0
 15 16  1  0  0  0  0
 16 17  2  0  0  0  0
 16 18  1  0  0  0  0
 18 30  1  0  0  0  0
 18 31  1  0  0  0  0
 18 32  1  0  0  0  0
 19 20  1  0  0  0  0
 19 33  1  0  0  0  0
 20 21  2  0  0  0  0
 20 34  1  0  0  0  0
 21 22  1  0  0  0  0
 21 35  1  0  0  0  0
 22 23  2  0  0  0  0
 22 36  1  0  0  0  0
 23 37  1  0  0  0  0
M  END
