Ro22-3148
 OpenBabel04201808233D
Structure written by MMmdl.
 32 35  0  0  0  0  0  0  0  0999 V2000
    0.0082    2.1359   -0.0320 C   0  0  0  0  0  0  0  0  0  0  0  0
   -0.1193    0.7383    0.1131 C   0  0  0  0  0  0  0  0  0  0  0  0
    1.0611   -0.2031    0.1630 C   0  0  0  0  0  0  0  0  0  0  0  0
    2.1506   -0.0497    0.8466 N   0  0  0  0  0  0  0  0  0  0  0  0
    2.3789    1.1352    1.6781 C   0  0  0  0  0  0  0  0  0  0  0  0
    2.3900    2.3580    0.8363 C   0  0  0  0  0  0  0  0  0  0  0  0
    1.3024    2.7922    0.0494 C   0  0  0  0  0  0  0  0  0  0  0  0
   -1.1485    2.9210   -0.1837 C   0  0  0  0  0  0  0  0  0  0  0  0
   -2.4158    2.3376   -0.1612 C   0  0  0  0  0  0  0  0  0  0  0  0
   -2.5446    0.9651    0.0218 C   0  0  0  0  0  0  0  0  0  0  0  0
   -1.4058    0.1696    0.1591 C   0  0  0  0  0  0  0  0  0  0  0  0
    3.4229    3.2037    0.7127 N   0  0  0  0  0  0  0  0  0  0  0  0
    2.9111    4.1220   -0.1424 N   0  0  0  0  0  0  0  0  0  0  0  0
    1.6369    3.9383   -0.5649 N   0  0  0  0  0  0  0  0  0  0  0  0
    0.9844   -1.4467   -0.6758 C   0  0  0  0  0  0  0  0  0  0  0  0
    0.4932   -1.4028   -1.9870 C   0  0  0  0  0  0  0  0  0  0  0  0
    0.4445   -2.5702   -2.7521 C   0  0  0  0  0  0  0  0  0  0  0  0
    0.8922   -3.7777   -2.2161 C   0  0  0  0  0  0  0  0  0  0  0  0
    1.3955   -3.8221   -0.9162 C   0  0  0  0  0  0  0  0  0  0  0  0
    1.4474   -2.6580   -0.1469 C   0  0  0  0  0  0  0  0  0  0  0  0
    3.3448    1.0183    2.1822 H   0  0  0  0  0  0  0  0  0  0  0  0
    1.6199    1.2057    2.4663 H   0  0  0  0  0  0  0  0  0  0  0  0
   -1.0705    4.0019   -0.2979 H   0  0  0  0  0  0  0  0  0  0  0  0
   -3.3029    2.9590   -0.2716 H   0  0  0  0  0  0  0  0  0  0  0  0
   -3.5331    0.5096    0.0523 H   0  0  0  0  0  0  0  0  0  0  0  0
   -1.5381   -0.9025    0.2978 H   0  0  0  0  0  0  0  0  0  0  0  0
    3.4617    4.9240   -0.4517 H   0  0  0  0  0  0  0  0  0  0  0  0
    0.1563   -0.4685   -2.4304 H   0  0  0  0  0  0  0  0  0  0  0  0
    0.0607   -2.5367   -3.7704 H   0  0  0  0  0  0  0  0  0  0  0  0
    0.8536   -4.6860   -2.8154 H   0  0  0  0  0  0  0  0  0  0  0  0
    1.7499   -4.7642   -0.5013 H   0  0  0  0  0  0  0  0  0  0  0  0
    1.8430   -2.7032    0.8659 H   0  0  0  0  0  0  0  0  0  0  0  0
  1  2  2  0  0  0  0
  1  7  1  0  0  0  0
  1  8  1  0  0  0  0
  2  3  1  0  0  0  0
  2 11  1  0  0  0  0
  3  4  2  0  0  0  0
  3 15  1  0  0  0  0
  4  5  1  0  0  0  0
  5  6  1  0  0  0  0
  5 21  1  0  0  0  0
  5 22  1  0  0  0  0
  6  7  1  0  0  0  0
  6 12  2  0  0  0  0
  7 14  2  0  0  0  0
  8  9  2  0  0  0  0
  8 23  1  0  0  0  0
  9 10  1  0  0  0  0
  9 24  1  0  0  0  0
 10 11  2  0  0  0  0
 10 25  1  0  0  0  0
 11 26  1  0  0  0  0
 12 13  1  0  0  0  0
 13 14  1  0  0  0  0
 13 27  1  0  0  0  0
 15 16  2  0  0  0  0
 15 20  1  0  0  0  0
 16 17  1  0  0  0  0
 16 28  1  0  0  0  0
 17 18  2  0  0  0  0
 17 29  1  0  0  0  0
 18 19  1  0  0  0  0
 18 30  1  0  0  0  0
 19 20  2  0  0  0  0
 19 31  1  0  0  0  0
 20 32  1  0  0  0  0
M  END
