Ro22-3147
 OpenBabel04201808233D
Structure written by MMmdl.
 32 35  0  0  0  0  0  0  0  0999 V2000
    0.0074    2.1186   -0.0194 C   0  0  0  0  0  0  0  0  0  0  0  0
   -0.1042    0.7184    0.1197 C   0  0  0  0  0  0  0  0  0  0  0  0
    1.0867   -0.2073    0.1905 C   0  0  0  0  0  0  0  0  0  0  0  0
    2.1917   -0.0334    0.8404 N   0  0  0  0  0  0  0  0  0  0  0  0
    2.4172    1.1513    1.6708 C   0  0  0  0  0  0  0  0  0  0  0  0
    2.3944    2.3774    0.8369 C   0  0  0  0  0  0  0  0  0  0  0  0
    1.2914    2.7963    0.0645 C   0  0  0  0  0  0  0  0  0  0  0  0
   -1.1572    2.8892   -0.1905 C   0  0  0  0  0  0  0  0  0  0  0  0
   -2.4169    2.2902   -0.2033 C   0  0  0  0  0  0  0  0  0  0  0  0
   -2.5306    0.9145   -0.0411 C   0  0  0  0  0  0  0  0  0  0  0  0
   -1.3846    0.1330    0.1169 C   0  0  0  0  0  0  0  0  0  0  0  0
    3.4097    3.2442    0.7118 N   0  0  0  0  0  0  0  0  0  0  0  0
    2.8733    4.1585   -0.1314 N   0  0  0  0  0  0  0  0  0  0  0  0
    1.6001    3.9527   -0.5448 N   0  0  0  0  0  0  0  0  0  0  0  0
    1.0031   -1.4565   -0.6225 C   0  0  0  0  0  0  0  0  0  0  0  0
    1.5123   -2.6374   -0.0633 C   0  0  0  0  0  0  0  0  0  0  0  0
    1.4426   -3.8323   -0.7801 C   0  0  0  0  0  0  0  0  0  0  0  0
    0.8650   -3.8517   -2.0493 C   0  0  0  0  0  0  0  0  0  0  0  0
    0.3561   -2.6762   -2.6070 C   0  0  0  0  0  0  0  0  0  0  0  0
    0.4210   -1.4742   -1.8964 C   0  0  0  0  0  0  0  0  0  0  0  0
   -0.1813   -0.0473   -2.6631 Cl  0  0  0  0  0  0  0  0  0  0  0  0
    3.3928    1.0465    2.1586 H   0  0  0  0  0  0  0  0  0  0  0  0
    1.6709    1.2074    2.4722 H   0  0  0  0  0  0  0  0  0  0  0  0
   -1.0916    3.9716   -0.2988 H   0  0  0  0  0  0  0  0  0  0  0  0
   -3.3092    2.9010   -0.3300 H   0  0  0  0  0  0  0  0  0  0  0  0
   -3.5131    0.4450   -0.0426 H   0  0  0  0  0  0  0  0  0  0  0  0
   -1.5137   -0.9408    0.2392 H   0  0  0  0  0  0  0  0  0  0  0  0
    3.4055    4.9736   -0.4389 H   0  0  0  0  0  0  0  0  0  0  0  0
    1.9552   -2.6363    0.9307 H   0  0  0  0  0  0  0  0  0  0  0  0
    1.8365   -4.7504   -0.3473 H   0  0  0  0  0  0  0  0  0  0  0  0
    0.8117   -4.7848   -2.6080 H   0  0  0  0  0  0  0  0  0  0  0  0
   -0.0855   -2.7072   -3.6010 H   0  0  0  0  0  0  0  0  0  0  0  0
  1  2  2  0  0  0  0
  1  7  1  0  0  0  0
  1  8  1  0  0  0  0
  2  3  1  0  0  0  0
  2 11  1  0  0  0  0
  3  4  2  0  0  0  0
  3 15  1  0  0  0  0
  4  5  1  0  0  0  0
  5  6  1  0  0  0  0
  5 22  1  0  0  0  0
  5 23  1  0  0  0  0
  6  7  1  0  0  0  0
  6 12  2  0  0  0  0
  7 14  2  0  0  0  0
  8  9  2  0  0  0  0
  8 24  1  0  0  0  0
  9 10  1  0  0  0  0
  9 25  1  0  0  0  0
 10 11  2  0  0  0  0
 10 26  1  0  0  0  0
 11 27  1  0  0  0  0
 12 13  1  0  0  0  0
 13 14  1  0  0  0  0
 13 28  1  0  0  0  0
 15 16  2  0  0  0  0
 15 20  1  0  0  0  0
 16 17  1  0  0  0  0
 16 29  1  0  0  0  0
 17 18  2  0  0  0  0
 17 30  1  0  0  0  0
 18 19  1  0  0  0  0
 18 31  1  0  0  0  0
 19 20  2  0  0  0  0
 19 32  1  0  0  0  0
 20 21  1  0  0  0  0
M  END
