Ro22-2466
 OpenBabel04201808233D
Structure written by MMmdl.
 32 35  0  0  0  0  0  0  0  0999 V2000
    0.0375    2.1503   -0.0202 C   0  0  0  0  0  0  0  0  0  0  0  0
   -0.0967    0.7515    0.1177 C   0  0  0  0  0  0  0  0  0  0  0  0
    1.0798   -0.1940    0.1751 C   0  0  0  0  0  0  0  0  0  0  0  0
    2.1776   -0.0422    0.8428 N   0  0  0  0  0  0  0  0  0  0  0  0
    2.4181    1.1368    1.6783 C   0  0  0  0  0  0  0  0  0  0  0  0
    2.4239    2.3644    0.8449 C   0  0  0  0  0  0  0  0  0  0  0  0
    1.3332    2.8044    0.0665 C   0  0  0  0  0  0  0  0  0  0  0  0
   -1.1149    2.9397   -0.1831 C   0  0  0  0  0  0  0  0  0  0  0  0
   -2.3848    2.3596   -0.1850 C   0  0  0  0  0  0  0  0  0  0  0  0
   -2.5139    0.9858   -0.0167 C   0  0  0  0  0  0  0  0  0  0  0  0
   -1.3844    0.1826    0.1346 C   0  0  0  0  0  0  0  0  0  0  0  0
    3.4564    3.2110    0.7234 N   0  0  0  0  0  0  0  0  0  0  0  0
    2.9413    4.1357   -0.1225 N   0  0  0  0  0  0  0  0  0  0  0  0
    1.6657    3.9543   -0.5415 N   0  0  0  0  0  0  0  0  0  0  0  0
    0.9848   -1.4324   -0.6548 C   0  0  0  0  0  0  0  0  0  0  0  0
    1.4516   -2.6533   -0.1514 C   0  0  0  0  0  0  0  0  0  0  0  0
    1.3510   -3.8080   -0.9313 C   0  0  0  0  0  0  0  0  0  0  0  0
    0.7835   -3.7473   -2.2059 C   0  0  0  0  0  0  0  0  0  0  0  0
    0.3132   -2.5320   -2.7047 C   0  0  0  0  0  0  0  0  0  0  0  0
    0.4126   -1.3808   -1.9275 C   0  0  0  0  0  0  0  0  0  0  0  0
   -4.0794    0.2699   -0.0034 Cl  0  0  0  0  0  0  0  0  0  0  0  0
   -0.0236   -0.2208   -2.4416 F   0  0  0  0  0  0  0  0  0  0  0  0
    3.3881    1.0139    2.1727 H   0  0  0  0  0  0  0  0  0  0  0  0
    1.6667    1.2051    2.4740 H   0  0  0  0  0  0  0  0  0  0  0  0
   -1.0331    4.0209   -0.2912 H   0  0  0  0  0  0  0  0  0  0  0  0
   -3.2629    2.9898   -0.3060 H   0  0  0  0  0  0  0  0  0  0  0  0
   -1.5162   -0.8893    0.2638 H   0  0  0  0  0  0  0  0  0  0  0  0
    3.4904    4.9402   -0.4279 H   0  0  0  0  0  0  0  0  0  0  0  0
    1.8833   -2.7209    0.8448 H   0  0  0  0  0  0  0  0  0  0  0  0
    1.7129   -4.7589   -0.5430 H   0  0  0  0  0  0  0  0  0  0  0  0
    0.7073   -4.6496   -2.8107 H   0  0  0  0  0  0  0  0  0  0  0  0
   -0.1265   -2.4780   -3.6968 H   0  0  0  0  0  0  0  0  0  0  0  0
  1  2  2  0  0  0  0
  1  7  1  0  0  0  0
  1  8  1  0  0  0  0
  2  3  1  0  0  0  0
  2 11  1  0  0  0  0
  3  4  2  0  0  0  0
  3 15  1  0  0  0  0
  4  5  1  0  0  0  0
  5  6  1  0  0  0  0
  5 23  1  0  0  0  0
  5 24  1  0  0  0  0
  6  7  1  0  0  0  0
  6 12  2  0  0  0  0
  7 14  2  0  0  0  0
  8  9  2  0  0  0  0
  8 25  1  0  0  0  0
  9 10  1  0  0  0  0
  9 26  1  0  0  0  0
 10 11  2  0  0  0  0
 10 21  1  0  0  0  0
 11 27  1  0  0  0  0
 12 13  1  0  0  0  0
 13 14  1  0  0  0  0
 13 28  1  0  0  0  0
 15 16  2  0  0  0  0
 15 20  1  0  0  0  0
 16 17  1  0  0  0  0
 16 29  1  0  0  0  0
 17 18  2  0  0  0  0
 17 30  1  0  0  0  0
 18 19  1  0  0  0  0
 18 31  1  0  0  0  0
 19 20  2  0  0  0  0
 19 32  1  0  0  0  0
 20 22  1  0  0  0  0
M  END
