Ro14-5974
 OpenBabel04201808233D
Structure written by MMmdl.
 40 43  0  0  0  0  0  0  0  0999 V2000
    0.2688    2.1214    0.0570 C   0  0  0  0  0  0  0  0  0  0  0  0
    0.0043    0.7594    0.2402 C   0  0  0  0  0  0  0  0  0  0  0  0
    1.0304   -0.3100    0.2947 C   0  0  0  0  0  0  0  0  0  0  0  0
    2.2251   -0.0832    0.9364 N   0  0  0  0  0  0  0  0  0  0  0  0
    2.5689    1.0602    1.7778 C   0  0  2  0  0  0  0  0  0  0  0  0
    2.6327    2.2860    0.9309 C   0  0  0  0  0  0  0  0  0  0  0  0
    1.5757    2.6674    0.1117 N   0  0  0  0  0  0  0  0  0  0  0  0
   -0.8056    3.0081   -0.1712 C   0  0  0  0  0  0  0  0  0  0  0  0
   -2.1237    2.5485   -0.1879 C   0  0  0  0  0  0  0  0  0  0  0  0
   -2.3892    1.2005    0.0102 C   0  0  0  0  0  0  0  0  0  0  0  0
   -1.3327    0.3133    0.2123 C   0  0  0  0  0  0  0  0  0  0  0  0
    3.1436   -1.1945    1.1341 C   0  0  0  0  0  0  0  0  0  0  0  0
    3.8003   -0.8941    2.4640 C   0  0  0  0  0  0  0  0  0  0  0  0
    3.8900    0.6229    2.4282 C   0  0  0  0  0  0  0  0  0  0  0  0
    3.5441    3.3443    0.8319 C   0  0  0  0  0  0  0  0  0  0  0  0
    3.1564    4.2142   -0.1706 N   0  0  0  0  0  0  0  0  0  0  0  0
    1.9908    3.7839   -0.5744 C   0  0  0  0  0  0  0  0  0  0  0  0
    0.7657   -1.3899   -0.2332 O   0  0  0  0  0  0  0  0  0  0  0  0
    4.7273    3.6324    1.6503 C   0  0  0  0  0  0  0  0  0  0  0  0
    5.1238    2.9040    2.5528 O   0  0  0  0  0  0  0  0  0  0  0  0
    5.3144    4.8173    1.3098 O   0  0  0  0  0  0  0  0  0  0  0  0
    1.7898    1.1656    2.5430 H   0  0  0  0  0  0  0  0  0  0  0  0
   -0.6485    4.0782   -0.2950 H   0  0  0  0  0  0  0  0  0  0  0  0
   -2.9424    3.2460   -0.3493 H   0  0  0  0  0  0  0  0  0  0  0  0
   -3.4124    0.8331   -0.0102 H   0  0  0  0  0  0  0  0  0  0  0  0
   -1.5536   -0.7482    0.3260 H   0  0  0  0  0  0  0  0  0  0  0  0
    3.8706   -1.1706    0.3146 H   0  0  0  0  0  0  0  0  0  0  0  0
    2.6368   -2.1641    1.1339 H   0  0  0  0  0  0  0  0  0  0  0  0
    4.7730   -1.3803    2.5769 H   0  0  0  0  0  0  0  0  0  0  0  0
    3.1536   -1.2114    3.2908 H   0  0  0  0  0  0  0  0  0  0  0  0
    4.0169    1.0363    3.4329 H   0  0  0  0  0  0  0  0  0  0  0  0
    4.7605    0.8959    1.8191 H   0  0  0  0  0  0  0  0  0  0  0  0
    1.4025    4.2428   -1.3585 H   0  0  0  0  0  0  0  0  0  0  0  0
    6.4554    5.2010    2.0865 C   0  0  0  0  0  0  0  0  0  0  0  0
    7.7104    4.5505    1.5359 C   0  0  0  0  0  0  0  0  0  0  0  0
    6.5433    6.2896    2.0097 H   0  0  0  0  0  0  0  0  0  0  0  0
    6.3115    4.9644    3.1470 H   0  0  0  0  0  0  0  0  0  0  0  0
    8.5957    4.9000    2.0746 H   0  0  0  0  0  0  0  0  0  0  0  0
    7.6595    3.4604    1.6214 H   0  0  0  0  0  0  0  0  0  0  0  0
    7.8279    4.7811    0.4719 H   0  0  0  0  0  0  0  0  0  0  0  0
  1  2  2  0  0  0  0
  1  7  1  0  0  0  0
  1  8  1  0  0  0  0
  2  3  1  0  0  0  0
  2 11  1  0  0  0  0
  3  4  1  0  0  0  0
  3 18  2  0  0  0  0
  4  5  1  0  0  0  0
  4 12  1  0  0  0  0
  5  6  1  0  0  0  0
  5 14  1  0  0  0  0
  5 22  1  1  0  0  0
  6  7  1  0  0  0  0
  6 15  2  0  0  0  0
  7 17  1  0  0  0  0
  8  9  2  0  0  0  0
  8 23  1  0  0  0  0
  9 10  1  0  0  0  0
  9 24  1  0  0  0  0
 10 11  2  0  0  0  0
 10 25  1  0  0  0  0
 11 26  1  0  0  0  0
 12 13  1  0  0  0  0
 12 27  1  0  0  0  0
 12 28  1  0  0  0  0
 13 14  1  0  0  0  0
 13 29  1  0  0  0  0
 13 30  1  0  0  0  0
 14 31  1  0  0  0  0
 14 32  1  0  0  0  0
 15 16  1  0  0  0  0
 15 19  1  0  0  0  0
 16 17  2  0  0  0  0
 17 33  1  0  0  0  0
 19 20  2  0  0  0  0
 19 21  1  0  0  0  0
 21 34  1  0  0  0  0
 34 36  1  0  0  0  0
 34 37  1  0  0  0  0
 35 34  1  0  0  0  0
 35 38  1  0  0  0  0
 35 39  1  0  0  0  0
 35 40  1  0  0  0  0
M  END
