Ro16-3774
 OpenBabel04201808233D
Structure written by MMmdl.
 49 52  0  0  0  0  0  0  0  0999 V2000
    0.2749    2.0989    0.0217 C   0  0  0  0  0  0  0  0  0  0  0  0
   -0.0088    0.7456    0.2700 C   0  0  0  0  0  0  0  0  0  0  0  0
    1.0539   -0.2947    0.2484 C   0  0  0  0  0  0  0  0  0  0  0  0
    2.2140   -0.0855    0.9529 N   0  0  0  0  0  0  0  0  0  0  0  0
    2.5466    1.0601    1.7943 C   0  0  2  0  0  0  0  0  0  0  0  0
    2.6256    2.2736    0.9275 C   0  0  0  0  0  0  0  0  0  0  0  0
    1.5905    2.6302    0.0671 N   0  0  0  0  0  0  0  0  0  0  0  0
   -0.7821    2.9988   -0.2204 C   0  0  0  0  0  0  0  0  0  0  0  0
   -2.1059    2.5707   -0.1694 C   0  0  0  0  0  0  0  0  0  0  0  0
   -2.3934    1.2449    0.1308 C   0  0  0  0  0  0  0  0  0  0  0  0
   -1.3603    0.3216    0.3586 C   0  0  0  0  0  0  0  0  0  0  0  0
    3.1541   -1.1803    1.1256 C   0  0  0  0  0  0  0  0  0  0  0  0
    3.7924   -0.8945    2.4670 C   0  0  0  0  0  0  0  0  0  0  0  0
    3.8627    0.6244    2.4559 C   0  0  0  0  0  0  0  0  0  0  0  0
    3.5318    3.3374    0.8341 C   0  0  0  0  0  0  0  0  0  0  0  0
    3.1736    4.1756   -0.2069 N   0  0  0  0  0  0  0  0  0  0  0  0
    2.0253    3.7256   -0.6390 C   0  0  0  0  0  0  0  0  0  0  0  0
    0.8624   -1.3211   -0.4010 O   0  0  0  0  0  0  0  0  0  0  0  0
    4.6817    3.6576    1.6913 C   0  0  0  0  0  0  0  0  0  0  0  0
    5.0423    2.9524    2.6250 O   0  0  0  0  0  0  0  0  0  0  0  0
    5.2621    4.8420    1.3467 O   0  0  0  0  0  0  0  0  0  0  0  0
    1.7575    1.1719    2.5478 H   0  0  0  0  0  0  0  0  0  0  0  0
   -0.6048    4.0567   -0.4033 H   0  0  0  0  0  0  0  0  0  0  0  0
   -2.9151    3.2759   -0.3457 H   0  0  0  0  0  0  0  0  0  0  0  0
   -3.4338    0.9268    0.1760 H   0  0  0  0  0  0  0  0  0  0  0  0
   -1.7454   -1.1066    0.6498 C   0  0  0  0  0  0  0  0  0  0  0  0
    3.8851   -1.1207    0.3115 H   0  0  0  0  0  0  0  0  0  0  0  0
    2.6641   -2.1580    1.0965 H   0  0  0  0  0  0  0  0  0  0  0  0
    4.7709   -1.3685    2.5821 H   0  0  0  0  0  0  0  0  0  0  0  0
    3.1415   -1.2333    3.2819 H   0  0  0  0  0  0  0  0  0  0  0  0
    3.9735    1.0247    3.4676 H   0  0  0  0  0  0  0  0  0  0  0  0
    4.7373    0.9159    1.8619 H   0  0  0  0  0  0  0  0  0  0  0  0
    1.4600    4.1585   -1.4543 H   0  0  0  0  0  0  0  0  0  0  0  0
    6.3845    5.3724    2.0939 C   0  0  0  0  0  0  0  0  0  0  0  0
    7.6020    4.4457    2.0034 C   0  0  0  0  0  0  0  0  0  0  0  0
    6.7273    6.6995    1.3998 C   0  0  0  0  0  0  0  0  0  0  0  0
    5.9970    5.6691    3.5470 C   0  0  0  0  0  0  0  0  0  0  0  0
    8.4950    4.9185    2.4263 H   0  0  0  0  0  0  0  0  0  0  0  0
    7.4434    3.5067    2.5421 H   0  0  0  0  0  0  0  0  0  0  0  0
    7.8100    4.1782    0.9613 H   0  0  0  0  0  0  0  0  0  0  0  0
    5.8673    7.3794    1.4115 H   0  0  0  0  0  0  0  0  0  0  0  0
    7.5726    7.2036    1.8802 H   0  0  0  0  0  0  0  0  0  0  0  0
    6.9768    6.5353    0.3450 H   0  0  0  0  0  0  0  0  0  0  0  0
    5.0727    6.2560    3.5906 H   0  0  0  0  0  0  0  0  0  0  0  0
    5.8140    4.7537    4.1176 H   0  0  0  0  0  0  0  0  0  0  0  0
    6.7866    6.2241    4.0649 H   0  0  0  0  0  0  0  0  0  0  0  0
   -1.0912   -1.5425    1.4121 H   0  0  0  0  0  0  0  0  0  0  0  0
   -2.7645   -1.1641    1.0486 H   0  0  0  0  0  0  0  0  0  0  0  0
   -1.7044   -1.7061   -0.2643 H   0  0  0  0  0  0  0  0  0  0  0  0
  1  2  2  0  0  0  0
  1  7  1  0  0  0  0
  1  8  1  0  0  0  0
  2  3  1  0  0  0  0
  2 11  1  0  0  0  0
  3  4  1  0  0  0  0
  3 18  2  0  0  0  0
  4  5  1  0  0  0  0
  4 12  1  0  0  0  0
  5  6  1  0  0  0  0
  5 14  1  0  0  0  0
  5 22  1  1  0  0  0
  6  7  1  0  0  0  0
  6 15  2  0  0  0  0
  7 17  1  0  0  0  0
  8  9  2  0  0  0  0
  8 23  1  0  0  0  0
  9 10  1  0  0  0  0
  9 24  1  0  0  0  0
 10 11  2  0  0  0  0
 10 25  1  0  0  0  0
 11 26  1  0  0  0  0
 12 13  1  0  0  0  0
 12 27  1  0  0  0  0
 12 28  1  0  0  0  0
 13 14  1  0  0  0  0
 13 29  1  0  0  0  0
 13 30  1  0  0  0  0
 14 31  1  0  0  0  0
 14 32  1  0  0  0  0
 15 16  1  0  0  0  0
 15 19  1  0  0  0  0
 16 17  2  0  0  0  0
 17 33  1  0  0  0  0
 19 20  2  0  0  0  0
 19 21  1  0  0  0  0
 21 34  1  0  0  0  0
 26 47  1  0  0  0  0
 26 48  1  0  0  0  0
 26 49  1  0  0  0  0
 34 36  1  0  0  0  0
 34 37  1  0  0  0  0
 35 34  1  0  0  0  0
 35 38  1  0  0  0  0
 35 39  1  0  0  0  0
 35 40  1  0  0  0  0
 36 41  1  0  0  0  0
 36 42  1  0  0  0  0
 36 43  1  0  0  0  0
 37 44  1  0  0  0  0
 37 45  1  0  0  0  0
 37 46  1  0  0  0  0
M  END
