Ro16-8912
 OpenBabel04201808233D
Structure written by MMmdl.
 46 49  0  0  0  0  0  0  0  0999 V2000
    0.2822    2.1026    0.0078 C   0  0  0  0  0  0  0  0  0  0  0  0
    0.0008    0.7543    0.2450 C   0  0  0  0  0  0  0  0  0  0  0  0
    1.0324   -0.3007    0.2698 C   0  0  0  0  0  0  0  0  0  0  0  0
    2.1856   -0.0961    0.9916 N   0  0  0  0  0  0  0  0  0  0  0  0
    2.5391    1.0684    1.8088 C   0  0  2  0  0  0  0  0  0  0  0  0
    2.6232    2.2742    0.9221 C   0  0  0  0  0  0  0  0  0  0  0  0
    1.5983    2.6248    0.0463 N   0  0  0  0  0  0  0  0  0  0  0  0
   -0.7787    3.0038   -0.2124 C   0  0  0  0  0  0  0  0  0  0  0  0
   -2.1041    2.5707   -0.1326 C   0  0  0  0  0  0  0  0  0  0  0  0
   -2.3864    1.2343    0.1309 C   0  0  0  0  0  0  0  0  0  0  0  0
   -1.3373    0.3341    0.2903 C   0  0  0  0  0  0  0  0  0  0  0  0
    3.1543   -1.1704    1.1342 C   0  0  0  0  0  0  0  0  0  0  0  0
    3.8406   -0.8836    2.4453 C   0  0  0  0  0  0  0  0  0  0  0  0
    3.8627    0.6387    2.4750 C   0  0  0  0  0  0  0  0  0  0  0  0
    3.4992    3.3638    0.8560 C   0  0  0  0  0  0  0  0  0  0  0  0
    3.1867    4.1699   -0.2258 N   0  0  0  0  0  0  0  0  0  0  0  0
    2.0446    3.7080   -0.6739 C   0  0  0  0  0  0  0  0  0  0  0  0
    0.8358   -1.3338   -0.3718 O   0  0  0  0  0  0  0  0  0  0  0  0
   -1.6445   -0.9569    0.4950 F   0  0  0  0  0  0  0  0  0  0  0  0
    4.5612    3.7729    1.7844 C   0  0  0  0  0  0  0  0  0  0  0  0
    4.8924    3.1125    2.7614 O   0  0  0  0  0  0  0  0  0  0  0  0
    5.1913    4.8899    1.3340 O   0  0  0  0  0  0  0  0  0  0  0  0
    6.4426    5.3559    1.8990 C   0  0  0  0  0  0  0  0  0  0  0  0
    6.3135    5.6872    3.3876 C   0  0  0  0  0  0  0  0  0  0  0  0
    6.7516    6.6445    1.1237 C   0  0  0  0  0  0  0  0  0  0  0  0
    7.5625    4.3427    1.6425 C   0  0  0  0  0  0  0  0  0  0  0  0
    1.7613    1.2095    2.5702 H   0  0  0  0  0  0  0  0  0  0  0  0
   -0.6033    4.0633   -0.3978 H   0  0  0  0  0  0  0  0  0  0  0  0
   -2.9166    3.2821   -0.2621 H   0  0  0  0  0  0  0  0  0  0  0  0
   -3.4141    0.8895    0.1943 H   0  0  0  0  0  0  0  0  0  0  0  0
    3.8513   -1.0927    0.2958 H   0  0  0  0  0  0  0  0  0  0  0  0
    2.6783   -2.1543    1.1094 H   0  0  0  0  0  0  0  0  0  0  0  0
    4.8402   -1.3224    2.5015 H   0  0  0  0  0  0  0  0  0  0  0  0
    3.2465   -1.2712    3.2791 H   0  0  0  0  0  0  0  0  0  0  0  0
    3.9474    0.9973    3.5051 H   0  0  0  0  0  0  0  0  0  0  0  0
    4.7423    0.9834    1.9161 H   0  0  0  0  0  0  0  0  0  0  0  0
    1.4817    4.1180   -1.5057 H   0  0  0  0  0  0  0  0  0  0  0  0
    7.1874    6.2426    3.7441 H   0  0  0  0  0  0  0  0  0  0  0  0
    6.2364    4.7796    3.9935 H   0  0  0  0  0  0  0  0  0  0  0  0
    5.4136    6.2790    3.5840 H   0  0  0  0  0  0  0  0  0  0  0  0
    7.7290    7.0609    1.3924 H   0  0  0  0  0  0  0  0  0  0  0  0
    5.9896    7.4106    1.3125 H   0  0  0  0  0  0  0  0  0  0  0  0
    6.7376    6.4602    0.0422 H   0  0  0  0  0  0  0  0  0  0  0  0
    8.5315    4.7514    1.9494 H   0  0  0  0  0  0  0  0  0  0  0  0
    7.6148    4.0729    0.5818 H   0  0  0  0  0  0  0  0  0  0  0  0
    7.3969    3.4131    2.1964 H   0  0  0  0  0  0  0  0  0  0  0  0
  1  2  2  0  0  0  0
  1  7  1  0  0  0  0
  1  8  1  0  0  0  0
  2  3  1  0  0  0  0
  2 11  1  0  0  0  0
  3  4  1  0  0  0  0
  3 18  2  0  0  0  0
  4  5  1  0  0  0  0
  4 12  1  0  0  0  0
  5  6  1  0  0  0  0
  5 14  1  0  0  0  0
  5 27  1  1  0  0  0
  6  7  1  0  0  0  0
  6 15  2  0  0  0  0
  7 17  1  0  0  0  0
  8  9  2  0  0  0  0
  8 28  1  0  0  0  0
  9 10  1  0  0  0  0
  9 29  1  0  0  0  0
 10 11  2  0  0  0  0
 10 30  1  0  0  0  0
 11 19  1  0  0  0  0
 12 13  1  0  0  0  0
 12 31  1  0  0  0  0
 12 32  1  0  0  0  0
 13 14  1  0  0  0  0
 13 33  1  0  0  0  0
 13 34  1  0  0  0  0
 14 35  1  0  0  0  0
 14 36  1  0  0  0  0
 15 16  1  0  0  0  0
 15 20  1  0  0  0  0
 16 17  2  0  0  0  0
 17 37  1  0  0  0  0
 20 21  2  0  0  0  0
 20 22  1  0  0  0  0
 22 23  1  0  0  0  0
 23 24  1  0  0  0  0
 23 25  1  0  0  0  0
 23 26  1  0  0  0  0
 24 38  1  0  0  0  0
 24 39  1  0  0  0  0
 24 40  1  0  0  0  0
 25 41  1  0  0  0  0
 25 42  1  0  0  0  0
 25 43  1  0  0  0  0
 26 44  1  0  0  0  0
 26 45  1  0  0  0  0
 26 46  1  0  0  0  0
M  END
