Ro16-4261
 OpenBabel04201808233D
Structure written by MMmdl.
 46 49  0  0  0  0  0  0  0  0999 V2000
    0.2475    2.1269    0.0520 C   0  0  0  0  0  0  0  0  0  0  0  0
    0.0004    0.7581    0.2335 C   0  0  0  0  0  0  0  0  0  0  0  0
    1.0497   -0.2886    0.2807 C   0  0  0  0  0  0  0  0  0  0  0  0
    2.2045   -0.0620    0.9859 N   0  0  0  0  0  0  0  0  0  0  0  0
    2.5147    1.0945    1.8264 C   0  0  2  0  0  0  0  0  0  0  0  0
    2.5952    2.3137    0.9670 C   0  0  0  0  0  0  0  0  0  0  0  0
    1.5479    2.6897    0.1299 N   0  0  0  0  0  0  0  0  0  0  0  0
   -0.8366    2.9959   -0.1945 C   0  0  0  0  0  0  0  0  0  0  0  0
   -2.1458    2.5122   -0.2167 C   0  0  0  0  0  0  0  0  0  0  0  0
   -2.3789    1.1619   -0.0110 C   0  0  0  0  0  0  0  0  0  0  0  0
   -1.3252    0.2845    0.2014 C   0  0  0  0  0  0  0  0  0  0  0  0
    3.1752   -1.1320    1.1682 C   0  0  0  0  0  0  0  0  0  0  0  0
    3.7918   -0.8355    2.5171 C   0  0  0  0  0  0  0  0  0  0  0  0
    3.8252    0.6834    2.5157 C   0  0  0  0  0  0  0  0  0  0  0  0
    3.5160    3.3627    0.8632 C   0  0  0  0  0  0  0  0  0  0  0  0
    3.1515    4.2216   -0.1604 N   0  0  0  0  0  0  0  0  0  0  0  0
    1.9726    3.8064   -0.5540 C   0  0  0  0  0  0  0  0  0  0  0  0
    0.8413   -1.3495   -0.3126 O   0  0  0  0  0  0  0  0  0  0  0  0
   -3.6347    0.6958   -0.0347 F   0  0  0  0  0  0  0  0  0  0  0  0
    4.7051    3.6621    1.6704 C   0  0  0  0  0  0  0  0  0  0  0  0
    5.0808    2.9424    2.5901 O   0  0  0  0  0  0  0  0  0  0  0  0
    5.3712    4.7598    1.2131 O   0  0  0  0  0  0  0  0  0  0  0  0
    6.6464    5.1690    1.7810 C   0  0  0  0  0  0  0  0  0  0  0  0
    7.7127    4.0874    1.5760 C   0  0  0  0  0  0  0  0  0  0  0  0
    6.4997    5.5629    3.2547 C   0  0  0  0  0  0  0  0  0  0  0  0
    7.0575    6.4141    0.9794 C   0  0  0  0  0  0  0  0  0  0  0  0
    1.7130    1.2025    2.5671 H   0  0  0  0  0  0  0  0  0  0  0  0
   -0.6934    4.0676   -0.3278 H   0  0  0  0  0  0  0  0  0  0  0  0
   -2.9804    3.1873   -0.3867 H   0  0  0  0  0  0  0  0  0  0  0  0
   -1.5435   -0.7740    0.3238 H   0  0  0  0  0  0  0  0  0  0  0  0
    3.9120   -1.0501    0.3615 H   0  0  0  0  0  0  0  0  0  0  0  0
    2.7116   -2.1217    1.1278 H   0  0  0  0  0  0  0  0  0  0  0  0
    4.7803   -1.2852    2.6405 H   0  0  0  0  0  0  0  0  0  0  0  0
    3.1418   -1.1941    3.3244 H   0  0  0  0  0  0  0  0  0  0  0  0
    3.9003    1.0766    3.5319 H   0  0  0  0  0  0  0  0  0  0  0  0
    4.7089    0.9999    1.9502 H   0  0  0  0  0  0  0  0  0  0  0  0
    1.3790    4.2666   -1.3349 H   0  0  0  0  0  0  0  0  0  0  0  0
    8.7085    4.4488    1.8542 H   0  0  0  0  0  0  0  0  0  0  0  0
    7.7392    3.7621    0.5298 H   0  0  0  0  0  0  0  0  0  0  0  0
    7.5090    3.1956    2.1760 H   0  0  0  0  0  0  0  0  0  0  0  0
    7.4241    6.0030    3.6441 H   0  0  0  0  0  0  0  0  0  0  0  0
    6.2536    4.7026    3.8842 H   0  0  0  0  0  0  0  0  0  0  0  0
    5.6885    6.2880    3.3849 H   0  0  0  0  0  0  0  0  0  0  0  0
    8.0229    6.8102    1.3116 H   0  0  0  0  0  0  0  0  0  0  0  0
    6.3094    7.2084    1.0764 H   0  0  0  0  0  0  0  0  0  0  0  0
    7.1270    6.1835   -0.0903 H   0  0  0  0  0  0  0  0  0  0  0  0
  1  2  2  0  0  0  0
  1  7  1  0  0  0  0
  1  8  1  0  0  0  0
  2  3  1  0  0  0  0
  2 11  1  0  0  0  0
  3  4  1  0  0  0  0
  3 18  2  0  0  0  0
  4  5  1  0  0  0  0
  4 12  1  0  0  0  0
  5  6  1  0  0  0  0
  5 14  1  0  0  0  0
  5 27  1  1  0  0  0
  6  7  1  0  0  0  0
  6 15  2  0  0  0  0
  7 17  1  0  0  0  0
  8  9  2  0  0  0  0
  8 28  1  0  0  0  0
  9 10  1  0  0  0  0
  9 29  1  0  0  0  0
 10 11  2  0  0  0  0
 10 19  1  0  0  0  0
 11 30  1  0  0  0  0
 12 13  1  0  0  0  0
 12 31  1  0  0  0  0
 12 32  1  0  0  0  0
 13 14  1  0  0  0  0
 13 33  1  0  0  0  0
 13 34  1  0  0  0  0
 14 35  1  0  0  0  0
 14 36  1  0  0  0  0
 15 16  1  0  0  0  0
 15 20  1  0  0  0  0
 16 17  2  0  0  0  0
 17 37  1  0  0  0  0
 20 21  2  0  0  0  0
 20 22  1  0  0  0  0
 22 23  1  0  0  0  0
 23 24  1  0  0  0  0
 23 25  1  0  0  0  0
 23 26  1  0  0  0  0
 24 38  1  0  0  0  0
 24 39  1  0  0  0  0
 24 40  1  0  0  0  0
 25 41  1  0  0  0  0
 25 42  1  0  0  0  0
 25 43  1  0  0  0  0
 26 44  1  0  0  0  0
 26 45  1  0  0  0  0
 26 46  1  0  0  0  0
M  END
