Ro16-6127
 OpenBabel04201808233D
Structure written by MMmdl.
 46 49  0  0  0  0  0  0  0  0999 V2000
    0.2611    2.0988    0.0095 C   0  0  0  0  0  0  0  0  0  0  0  0
   -0.0076    0.7441    0.2759 C   0  0  0  0  0  0  0  0  0  0  0  0
    1.0670   -0.2713    0.2472 C   0  0  0  0  0  0  0  0  0  0  0  0
    2.2007   -0.0637    0.9911 N   0  0  0  0  0  0  0  0  0  0  0  0
    2.5191    1.0880    1.8298 C   0  0  2  0  0  0  0  0  0  0  0  0
    2.5962    2.2976    0.9531 C   0  0  0  0  0  0  0  0  0  0  0  0
    1.5722    2.6424    0.0731 N   0  0  0  0  0  0  0  0  0  0  0  0
   -0.8043    2.9824   -0.2585 C   0  0  0  0  0  0  0  0  0  0  0  0
   -2.1215    2.5330   -0.2069 C   0  0  0  0  0  0  0  0  0  0  0  0
   -2.3824    1.2096    0.1219 C   0  0  0  0  0  0  0  0  0  0  0  0
   -1.3442    0.3076    0.3623 C   0  0  0  0  0  0  0  0  0  0  0  0
    3.1501   -1.1499    1.1689 C   0  0  0  0  0  0  0  0  0  0  0  0
    3.7790   -0.8561    2.5132 C   0  0  0  0  0  0  0  0  0  0  0  0
    3.8331    0.6641    2.5047 C   0  0  0  0  0  0  0  0  0  0  0  0
    3.4995    3.3634    0.8621 C   0  0  0  0  0  0  0  0  0  0  0  0
    3.1473    4.1956   -0.1861 N   0  0  0  0  0  0  0  0  0  0  0  0
    2.0080    3.7370   -0.6323 C   0  0  0  0  0  0  0  0  0  0  0  0
    0.9209   -1.2587   -0.4680 O   0  0  0  0  0  0  0  0  0  0  0  0
   -1.7803   -1.3015    0.8352 Cl  0  0  0  0  0  0  0  0  0  0  0  0
    4.6415    3.6919    1.7256 C   0  0  0  0  0  0  0  0  0  0  0  0
    4.9971    2.9928    2.6657 O   0  0  0  0  0  0  0  0  0  0  0  0
    5.2150    4.8764    1.3764 O   0  0  0  0  0  0  0  0  0  0  0  0
    6.3092    5.4385    2.1404 C   0  0  0  0  0  0  0  0  0  0  0  0
    5.8732    5.7660    3.5729 C   0  0  0  0  0  0  0  0  0  0  0  0
    6.6500    6.7513    1.4186 C   0  0  0  0  0  0  0  0  0  0  0  0
    7.5425    4.5290    2.1108 C   0  0  0  0  0  0  0  0  0  0  0  0
    1.7227    1.2001    2.5754 H   0  0  0  0  0  0  0  0  0  0  0  0
   -0.6413    4.0408   -0.4575 H   0  0  0  0  0  0  0  0  0  0  0  0
   -2.9500    3.2123   -0.3889 H   0  0  0  0  0  0  0  0  0  0  0  0
   -3.6632    0.8201    0.2076 F   0  0  0  0  0  0  0  0  0  0  0  0
    3.8855   -1.0878    0.3589 H   0  0  0  0  0  0  0  0  0  0  0  0
    2.6637   -2.1298    1.1383 H   0  0  0  0  0  0  0  0  0  0  0  0
    4.7614   -1.3200    2.6328 H   0  0  0  0  0  0  0  0  0  0  0  0
    3.1287   -1.2036    3.3248 H   0  0  0  0  0  0  0  0  0  0  0  0
    3.9280    1.0653    3.5179 H   0  0  0  0  0  0  0  0  0  0  0  0
    4.7122    0.9646    1.9222 H   0  0  0  0  0  0  0  0  0  0  0  0
    1.4531    4.1645   -1.4577 H   0  0  0  0  0  0  0  0  0  0  0  0
    6.6442    6.3343    4.1045 H   0  0  0  0  0  0  0  0  0  0  0  0
    5.6716    4.8622    4.1560 H   0  0  0  0  0  0  0  0  0  0  0  0
    4.9467    6.3514    3.5733 H   0  0  0  0  0  0  0  0  0  0  0  0
    7.4726    7.2840    1.9070 H   0  0  0  0  0  0  0  0  0  0  0  0
    5.7781    7.4151    1.3858 H   0  0  0  0  0  0  0  0  0  0  0  0
    6.9309    6.5603    0.3763 H   0  0  0  0  0  0  0  0  0  0  0  0
    8.4176    5.0310    2.5383 H   0  0  0  0  0  0  0  0  0  0  0  0
    7.7802    4.2281    1.0843 H   0  0  0  0  0  0  0  0  0  0  0  0
    7.3859    3.6074    2.6797 H   0  0  0  0  0  0  0  0  0  0  0  0
  1  2  2  0  0  0  0
  1  7  1  0  0  0  0
  1  8  1  0  0  0  0
  2  3  1  0  0  0  0
  2 11  1  0  0  0  0
  3  4  1  0  0  0  0
  3 18  2  0  0  0  0
  4  5  1  0  0  0  0
  4 12  1  0  0  0  0
  5  6  1  0  0  0  0
  5 14  1  0  0  0  0
  5 27  1  1  0  0  0
  6  7  1  0  0  0  0
  6 15  2  0  0  0  0
  7 17  1  0  0  0  0
  8  9  2  0  0  0  0
  8 28  1  0  0  0  0
  9 10  1  0  0  0  0
  9 29  1  0  0  0  0
 10 11  2  0  0  0  0
 10 30  1  0  0  0  0
 11 19  1  0  0  0  0
 12 13  1  0  0  0  0
 12 31  1  0  0  0  0
 12 32  1  0  0  0  0
 13 14  1  0  0  0  0
 13 33  1  0  0  0  0
 13 34  1  0  0  0  0
 14 35  1  0  0  0  0
 14 36  1  0  0  0  0
 15 16  1  0  0  0  0
 15 20  1  0  0  0  0
 16 17  2  0  0  0  0
 17 37  1  0  0  0  0
 20 21  2  0  0  0  0
 20 22  1  0  0  0  0
 22 23  1  0  0  0  0
 23 24  1  0  0  0  0
 23 25  1  0  0  0  0
 23 26  1  0  0  0  0
 24 38  1  0  0  0  0
 24 39  1  0  0  0  0
 24 40  1  0  0  0  0
 25 41  1  0  0  0  0
 25 42  1  0  0  0  0
 25 43  1  0  0  0  0
 26 44  1  0  0  0  0
 26 45  1  0  0  0  0
 26 46  1  0  0  0  0
M  END
