Nitrazepam
 OpenBabel04201808233D
Structure written by MMmdl.
 32 34  0  0  0  0  0  0  0  0999 V2000
   -2.1048    2.5213   -0.2110 C   0  0  0  0  0  0  0  0  0  0  0  0
   -2.3451    1.1566   -0.0319 C   0  0  0  0  0  0  0  0  0  0  0  0
   -1.2785    0.2714    0.1702 C   0  0  0  0  0  0  0  0  0  0  0  0
    0.0430    0.7560    0.2040 C   0  0  0  0  0  0  0  0  0  0  0  0
    0.2814    2.1390    0.1014 C   0  0  0  0  0  0  0  0  0  0  0  0
   -0.7945    3.0039   -0.1494 C   0  0  0  0  0  0  0  0  0  0  0  0
    1.1587   -0.2463    0.2281 C   0  0  0  0  0  0  0  0  0  0  0  0
    2.2402   -0.1464    0.9310 N   0  0  0  0  0  0  0  0  0  0  0  0
    2.4059    1.0328    1.7789 C   0  0  0  0  0  0  0  0  0  0  0  0
    2.6265    2.2652    0.9148 C   0  0  0  0  0  0  0  0  0  0  0  0
    1.5431    2.7460    0.2254 N   0  0  0  0  0  0  0  0  0  0  0  0
    1.0388   -1.4592   -0.6445 C   0  0  0  0  0  0  0  0  0  0  0  0
    3.7086    2.8605    0.8799 O   0  0  0  0  0  0  0  0  0  0  0  0
    0.5293   -1.3633   -1.9456 C   0  0  0  0  0  0  0  0  0  0  0  0
    0.4370   -2.5061   -2.7429 C   0  0  0  0  0  0  0  0  0  0  0  0
    0.8597   -3.7403   -2.2488 C   0  0  0  0  0  0  0  0  0  0  0  0
    1.3820   -3.8360   -0.9590 C   0  0  0  0  0  0  0  0  0  0  0  0
    1.4773   -2.6968   -0.1577 C   0  0  0  0  0  0  0  0  0  0  0  0
   -3.7215    0.6456   -0.0772 N   0  3  0  0  0  0  0  0  0  0  0  0
   -3.9043   -0.5745    0.0937 O   0  0  0  0  0  0  0  0  0  0  0  0
   -4.6463    1.4543   -0.2830 O   0  5  0  0  0  0  0  0  0  0  0  0
   -2.9168    3.2240   -0.3845 H   0  0  0  0  0  0  0  0  0  0  0  0
   -1.4682   -0.7937    0.2836 H   0  0  0  0  0  0  0  0  0  0  0  0
   -0.6295    4.0748   -0.2631 H   0  0  0  0  0  0  0  0  0  0  0  0
    3.2959    0.8912    2.4018 H   0  0  0  0  0  0  0  0  0  0  0  0
    1.5625    1.1795    2.4632 H   0  0  0  0  0  0  0  0  0  0  0  0
    1.6606    3.6819   -0.1534 H   0  0  0  0  0  0  0  0  0  0  0  0
    0.2135   -0.4071   -2.3571 H   0  0  0  0  0  0  0  0  0  0  0  0
    0.0392   -2.4328   -3.7538 H   0  0  0  0  0  0  0  0  0  0  0  0
    0.7872   -4.6295   -2.8733 H   0  0  0  0  0  0  0  0  0  0  0  0
    1.7170   -4.7988   -0.5773 H   0  0  0  0  0  0  0  0  0  0  0  0
    1.8872   -2.7811    0.8469 H   0  0  0  0  0  0  0  0  0  0  0  0
  1  2  2  0  0  0  0
  1  6  1  0  0  0  0
  1 22  1  0  0  0  0
  2  3  1  0  0  0  0
  2 19  1  0  0  0  0
  3  4  2  0  0  0  0
  3 23  1  0  0  0  0
  4  5  1  0  0  0  0
  4  7  1  0  0  0  0
  5  6  2  0  0  0  0
  5 11  1  0  0  0  0
  6 24  1  0  0  0  0
  7  8  2  0  0  0  0
  7 12  1  0  0  0  0
  8  9  1  0  0  0  0
  9 10  1  0  0  0  0
  9 25  1  0  0  0  0
  9 26  1  0  0  0  0
 10 11  1  0  0  0  0
 10 13  2  0  0  0  0
 11 27  1  0  0  0  0
 12 14  2  0  0  0  0
 12 18  1  0  0  0  0
 14 15  1  0  0  0  0
 14 28  1  0  0  0  0
 15 16  2  0  0  0  0
 15 29  1  0  0  0  0
 16 17  1  0  0  0  0
 16 30  1  0  0  0  0
 17 18  2  0  0  0  0
 17 31  1  0  0  0  0
 18 32  1  0  0  0  0
 19 20  2  0  0  0  0
 19 21  1  0  0  0  0
M  CHG  2  19   1  21  -1
M  END
