Ro16-3058
 OpenBabel04201808233D
Structure written by MMmdl.
 46 49  0  0  0  0  0  0  0  0999 V2000
    0.2411    2.1310    0.0641 C   0  0  0  0  0  0  0  0  0  0  0  0
    0.0054    0.7584    0.2225 C   0  0  0  0  0  0  0  0  0  0  0  0
    1.0632   -0.2823    0.2691 C   0  0  0  0  0  0  0  0  0  0  0  0
    2.2105   -0.0550    0.9882 N   0  0  0  0  0  0  0  0  0  0  0  0
    2.5050    1.1013    1.8342 C   0  0  2  0  0  0  0  0  0  0  0  0
    2.5896    2.3208    0.9756 C   0  0  0  0  0  0  0  0  0  0  0  0
    1.5367    2.7027    0.1491 N   0  0  0  0  0  0  0  0  0  0  0  0
   -0.8482    2.9939   -0.1742 C   0  0  0  0  0  0  0  0  0  0  0  0
   -2.1548    2.5012   -0.2156 C   0  0  0  0  0  0  0  0  0  0  0  0
   -2.3848    1.1438   -0.0347 C   0  0  0  0  0  0  0  0  0  0  0  0
   -1.3173    0.2750    0.1722 C   0  0  0  0  0  0  0  0  0  0  0  0
    3.1773   -1.1254    1.1912 C   0  0  0  0  0  0  0  0  0  0  0  0
    3.7604   -0.8277    2.5555 C   0  0  0  0  0  0  0  0  0  0  0  0
    3.8037    0.6920    2.5450 C   0  0  0  0  0  0  0  0  0  0  0  0
    3.5206    3.3589    0.8557 C   0  0  0  0  0  0  0  0  0  0  0  0
    3.1406    4.2318   -0.1501 N   0  0  0  0  0  0  0  0  0  0  0  0
    1.9527    3.8279   -0.5259 C   0  0  0  0  0  0  0  0  0  0  0  0
    0.8685   -1.3399   -0.3337 O   0  0  0  0  0  0  0  0  0  0  0  0
   -3.9926    0.5326   -0.0858 Cl  0  0  0  0  0  0  0  0  0  0  0  0
    4.7356    3.6360    1.6306 C   0  0  0  0  0  0  0  0  0  0  0  0
    5.1271    2.9042    2.5336 O   0  0  0  0  0  0  0  0  0  0  0  0
    5.4005    4.7300    1.1635 O   0  0  0  0  0  0  0  0  0  0  0  0
    6.6959    5.1185    1.6979 C   0  0  0  0  0  0  0  0  0  0  0  0
    6.5980    5.4994    3.1789 C   0  0  0  0  0  0  0  0  0  0  0  0
    7.0978    6.3669    0.8967 C   0  0  0  0  0  0  0  0  0  0  0  0
    7.7452    4.0279    1.4532 C   0  0  0  0  0  0  0  0  0  0  0  0
    1.6909    1.2033    2.5623 H   0  0  0  0  0  0  0  0  0  0  0  0
   -0.7145    4.0691   -0.2879 H   0  0  0  0  0  0  0  0  0  0  0  0
   -2.9822    3.1876   -0.3824 H   0  0  0  0  0  0  0  0  0  0  0  0
   -1.5109   -0.7912    0.2775 H   0  0  0  0  0  0  0  0  0  0  0  0
    3.9344   -1.0415    0.4033 H   0  0  0  0  0  0  0  0  0  0  0  0
    2.7162   -2.1157    1.1397 H   0  0  0  0  0  0  0  0  0  0  0  0
    4.7419   -1.2845    2.7079 H   0  0  0  0  0  0  0  0  0  0  0  0
    3.0863   -1.1770    3.3467 H   0  0  0  0  0  0  0  0  0  0  0  0
    3.8671    1.0958    3.5584 H   0  0  0  0  0  0  0  0  0  0  0  0
    4.6962    0.9983    1.9881 H   0  0  0  0  0  0  0  0  0  0  0  0
    1.3474    4.3006   -1.2907 H   0  0  0  0  0  0  0  0  0  0  0  0
    7.5391    5.9253    3.5428 H   0  0  0  0  0  0  0  0  0  0  0  0
    6.3630    4.6356    3.8080 H   0  0  0  0  0  0  0  0  0  0  0  0
    5.7996    6.2321    3.3410 H   0  0  0  0  0  0  0  0  0  0  0  0
    8.0785    6.7468    1.2024 H   0  0  0  0  0  0  0  0  0  0  0  0
    6.3637    7.1696    1.0275 H   0  0  0  0  0  0  0  0  0  0  0  0
    7.1294    6.1487   -0.1772 H   0  0  0  0  0  0  0  0  0  0  0  0
    8.7522    4.3787    1.7037 H   0  0  0  0  0  0  0  0  0  0  0  0
    7.7375    3.7089    0.4048 H   0  0  0  0  0  0  0  0  0  0  0  0
    7.5520    3.1343    2.0542 H   0  0  0  0  0  0  0  0  0  0  0  0
  1  2  2  0  0  0  0
  1  7  1  0  0  0  0
  1  8  1  0  0  0  0
  2  3  1  0  0  0  0
  2 11  1  0  0  0  0
  3  4  1  0  0  0  0
  3 18  2  0  0  0  0
  4  5  1  0  0  0  0
  4 12  1  0  0  0  0
  5  6  1  0  0  0  0
  5 14  1  0  0  0  0
  5 27  1  1  0  0  0
  6  7  1  0  0  0  0
  6 15  2  0  0  0  0
  7 17  1  0  0  0  0
  8  9  2  0  0  0  0
  8 28  1  0  0  0  0
  9 10  1  0  0  0  0
  9 29  1  0  0  0  0
 10 11  2  0  0  0  0
 10 19  1  0  0  0  0
 11 30  1  0  0  0  0
 12 13  1  0  0  0  0
 12 31  1  0  0  0  0
 12 32  1  0  0  0  0
 13 14  1  0  0  0  0
 13 33  1  0  0  0  0
 13 34  1  0  0  0  0
 14 35  1  0  0  0  0
 14 36  1  0  0  0  0
 15 16  1  0  0  0  0
 15 20  1  0  0  0  0
 16 17  2  0  0  0  0
 17 37  1  0  0  0  0
 20 21  2  0  0  0  0
 20 22  1  0  0  0  0
 22 23  1  0  0  0  0
 23 24  1  0  0  0  0
 23 25  1  0  0  0  0
 23 26  1  0  0  0  0
 24 38  1  0  0  0  0
 24 39  1  0  0  0  0
 24 40  1  0  0  0  0
 25 41  1  0  0  0  0
 25 42  1  0  0  0  0
 25 43  1  0  0  0  0
 26 44  1  0  0  0  0
 26 45  1  0  0  0  0
 26 46  1  0  0  0  0
M  END
