Ro16-6028
 OpenBabel04201808233D
Structure written by MMmdl.
 46 49  0  0  0  0  0  0  0  0999 V2000
    0.2605    2.0976    0.0112 C   0  0  0  0  0  0  0  0  0  0  0  0
   -0.0026    0.7413    0.2639 C   0  0  0  0  0  0  0  0  0  0  0  0
    1.0790   -0.2695    0.2319 C   0  0  0  0  0  0  0  0  0  0  0  0
    2.2038   -0.0634    0.9906 N   0  0  0  0  0  0  0  0  0  0  0  0
    2.5125    1.0901    1.8301 C   0  0  2  0  0  0  0  0  0  0  0  0
    2.5952    2.2983    0.9521 C   0  0  0  0  0  0  0  0  0  0  0  0
    1.5693    2.6449    0.0751 N   0  0  0  0  0  0  0  0  0  0  0  0
   -0.8083    2.9805   -0.2443 C   0  0  0  0  0  0  0  0  0  0  0  0
   -2.1266    2.5327   -0.1904 C   0  0  0  0  0  0  0  0  0  0  0  0
   -2.3933    1.2057    0.1272 C   0  0  0  0  0  0  0  0  0  0  0  0
   -1.3414    0.3098    0.3492 C   0  0  0  0  0  0  0  0  0  0  0  0
    3.1461   -1.1513    1.1864 C   0  0  0  0  0  0  0  0  0  0  0  0
    3.7597   -0.8518    2.5371 C   0  0  0  0  0  0  0  0  0  0  0  0
    3.8194    0.6682    2.5188 C   0  0  0  0  0  0  0  0  0  0  0  0
    3.5018    3.3606    0.8566 C   0  0  0  0  0  0  0  0  0  0  0  0
    3.1461    4.1967   -0.1872 N   0  0  0  0  0  0  0  0  0  0  0  0
    2.0023    3.7433   -0.6263 C   0  0  0  0  0  0  0  0  0  0  0  0
    0.9471   -1.2542   -0.4903 O   0  0  0  0  0  0  0  0  0  0  0  0
   -1.8447   -1.4602    0.8447 Br  0  0  0  0  0  0  0  0  0  0  0  0
    4.6505    3.6847    1.7120 C   0  0  0  0  0  0  0  0  0  0  0  0
    5.0120    2.9842    2.6487 O   0  0  0  0  0  0  0  0  0  0  0  0
    5.2255    4.8681    1.3594 O   0  0  0  0  0  0  0  0  0  0  0  0
    6.3336    5.4211    2.1103 C   0  0  0  0  0  0  0  0  0  0  0  0
    5.9178    5.7487    3.5481 C   0  0  0  0  0  0  0  0  0  0  0  0
    6.6759    6.7319    1.3868 C   0  0  0  0  0  0  0  0  0  0  0  0
    7.5585    4.5018    2.0632 C   0  0  0  0  0  0  0  0  0  0  0  0
    1.7089    1.2030    2.5679 H   0  0  0  0  0  0  0  0  0  0  0  0
   -0.6457    4.0399   -0.4363 H   0  0  0  0  0  0  0  0  0  0  0  0
   -2.9476    3.2247   -0.3672 H   0  0  0  0  0  0  0  0  0  0  0  0
   -3.4275    0.8734    0.1952 H   0  0  0  0  0  0  0  0  0  0  0  0
    3.8903   -1.0974    0.3841 H   0  0  0  0  0  0  0  0  0  0  0  0
    2.6564   -2.1295    1.1564 H   0  0  0  0  0  0  0  0  0  0  0  0
    4.7389   -1.3186    2.6731 H   0  0  0  0  0  0  0  0  0  0  0  0
    3.0973   -1.1900    3.3428 H   0  0  0  0  0  0  0  0  0  0  0  0
    3.9080    1.0765    3.5296 H   0  0  0  0  0  0  0  0  0  0  0  0
    4.7038    0.9604    1.9402 H   0  0  0  0  0  0  0  0  0  0  0  0
    1.4415    4.1762   -1.4446 H   0  0  0  0  0  0  0  0  0  0  0  0
    6.6966    6.3151    4.0696 H   0  0  0  0  0  0  0  0  0  0  0  0
    5.7231    4.8445    4.1327 H   0  0  0  0  0  0  0  0  0  0  0  0
    4.9921    6.3352    3.5604 H   0  0  0  0  0  0  0  0  0  0  0  0
    7.5107    7.2556    1.8644 H   0  0  0  0  0  0  0  0  0  0  0  0
    5.8099    7.4041    1.3685 H   0  0  0  0  0  0  0  0  0  0  0  0
    6.9397    6.5409    0.3399 H   0  0  0  0  0  0  0  0  0  0  0  0
    8.4416    4.9937    2.4856 H   0  0  0  0  0  0  0  0  0  0  0  0
    7.7831    4.2057    1.0324 H   0  0  0  0  0  0  0  0  0  0  0  0
    7.3993    3.5781    2.6275 H   0  0  0  0  0  0  0  0  0  0  0  0
  1  2  2  0  0  0  0
  1  7  1  0  0  0  0
  1  8  1  0  0  0  0
  2  3  1  0  0  0  0
  2 11  1  0  0  0  0
  3  4  1  0  0  0  0
  3 18  2  0  0  0  0
  4  5  1  0  0  0  0
  4 12  1  0  0  0  0
  5  6  1  0  0  0  0
  5 14  1  0  0  0  0
  5 27  1  1  0  0  0
  6  7  1  0  0  0  0
  6 15  2  0  0  0  0
  7 17  1  0  0  0  0
  8  9  2  0  0  0  0
  8 28  1  0  0  0  0
  9 10  1  0  0  0  0
  9 29  1  0  0  0  0
 10 11  2  0  0  0  0
 10 30  1  0  0  0  0
 11 19  1  0  0  0  0
 12 13  1  0  0  0  0
 12 31  1  0  0  0  0
 12 32  1  0  0  0  0
 13 14  1  0  0  0  0
 13 33  1  0  0  0  0
 13 34  1  0  0  0  0
 14 35  1  0  0  0  0
 14 36  1  0  0  0  0
 15 16  1  0  0  0  0
 15 20  1  0  0  0  0
 16 17  2  0  0  0  0
 17 37  1  0  0  0  0
 20 21  2  0  0  0  0
 20 22  1  0  0  0  0
 22 23  1  0  0  0  0
 23 24  1  0  0  0  0
 23 25  1  0  0  0  0
 23 26  1  0  0  0  0
 24 38  1  0  0  0  0
 24 39  1  0  0  0  0
 24 40  1  0  0  0  0
 25 41  1  0  0  0  0
 25 42  1  0  0  0  0
 25 43  1  0  0  0  0
 26 44  1  0  0  0  0
 26 45  1  0  0  0  0
 26 46  1  0  0  0  0
M  END
