Ro16-6048
 OpenBabel04201808233D
Structure written by MMmdl.
 49 52  0  0  0  0  0  0  0  0999 V2000
    0.2625    2.1057    0.0181 C   0  0  0  0  0  0  0  0  0  0  0  0
   -0.0019    0.7502    0.2742 C   0  0  0  0  0  0  0  0  0  0  0  0
    1.0696   -0.2706    0.2555 C   0  0  0  0  0  0  0  0  0  0  0  0
    2.2141   -0.0570    0.9753 N   0  0  0  0  0  0  0  0  0  0  0  0
    2.5253    1.0906    1.8212 C   0  0  2  0  0  0  0  0  0  0  0  0
    2.5996    2.3035    0.9511 C   0  0  0  0  0  0  0  0  0  0  0  0
    1.5702    2.6551    0.0821 N   0  0  0  0  0  0  0  0  0  0  0  0
   -0.8067    2.9814   -0.2509 C   0  0  0  0  0  0  0  0  0  0  0  0
   -2.1224    2.5254   -0.2215 C   0  0  0  0  0  0  0  0  0  0  0  0
   -2.3880    1.1973    0.0901 C   0  0  0  0  0  0  0  0  0  0  0  0
   -1.3394    0.2962    0.3502 C   0  0  0  0  0  0  0  0  0  0  0  0
    3.1579   -1.1463    1.1617 C   0  0  0  0  0  0  0  0  0  0  0  0
    3.7785   -0.8543    2.5104 C   0  0  0  0  0  0  0  0  0  0  0  0
    3.8354    0.6661    2.5025 C   0  0  0  0  0  0  0  0  0  0  0  0
    3.5033    3.3678    0.8609 C   0  0  0  0  0  0  0  0  0  0  0  0
    3.1474    4.2086   -0.1784 N   0  0  0  0  0  0  0  0  0  0  0  0
    2.0022    3.7565   -0.6169 C   0  0  0  0  0  0  0  0  0  0  0  0
    0.8782   -1.2815   -0.4137 O   0  0  0  0  0  0  0  0  0  0  0  0
   -1.6854   -1.1325    0.7110 C   0  0  0  0  0  0  0  0  0  0  0  0
    4.6469    3.6831    1.7246 C   0  0  0  0  0  0  0  0  0  0  0  0
    5.0000    2.9708    2.6558 O   0  0  0  0  0  0  0  0  0  0  0  0
    5.2308    4.8655    1.3852 O   0  0  0  0  0  0  0  0  0  0  0  0
    6.3447    5.3922    2.1453 C   0  0  0  0  0  0  0  0  0  0  0  0
    5.9354    5.6957    3.5908 C   0  0  0  0  0  0  0  0  0  0  0  0
    6.7008    6.7149    1.4495 C   0  0  0  0  0  0  0  0  0  0  0  0
    7.5611    4.4619    2.0787 C   0  0  0  0  0  0  0  0  0  0  0  0
    1.7255    1.1978    2.5640 H   0  0  0  0  0  0  0  0  0  0  0  0
   -0.6488    4.0419   -0.4399 H   0  0  0  0  0  0  0  0  0  0  0  0
   -2.9432    3.2128   -0.4160 H   0  0  0  0  0  0  0  0  0  0  0  0
   -3.4236    0.8581    0.1292 H   0  0  0  0  0  0  0  0  0  0  0  0
    3.8986   -1.0863    0.3564 H   0  0  0  0  0  0  0  0  0  0  0  0
    2.6703   -2.1251    1.1281 H   0  0  0  0  0  0  0  0  0  0  0  0
    4.7602   -1.3187    2.6359 H   0  0  0  0  0  0  0  0  0  0  0  0
    3.1216   -1.2003    3.3177 H   0  0  0  0  0  0  0  0  0  0  0  0
    3.9256    1.0656    3.5169 H   0  0  0  0  0  0  0  0  0  0  0  0
    4.7174    0.9653    1.9238 H   0  0  0  0  0  0  0  0  0  0  0  0
    1.4398    4.1909   -1.4332 H   0  0  0  0  0  0  0  0  0  0  0  0
    6.7259    6.2341    4.1244 H   0  0  0  0  0  0  0  0  0  0  0  0
    5.7220    4.7837    4.1561 H   0  0  0  0  0  0  0  0  0  0  0  0
    5.0223    6.3009    3.6165 H   0  0  0  0  0  0  0  0  0  0  0  0
    7.5342    7.2245    1.9445 H   0  0  0  0  0  0  0  0  0  0  0  0
    5.8391    7.3925    1.4370 H   0  0  0  0  0  0  0  0  0  0  0  0
    6.9734    6.5433    0.4016 H   0  0  0  0  0  0  0  0  0  0  0  0
    8.4502    4.9377    2.5071 H   0  0  0  0  0  0  0  0  0  0  0  0
    7.7803    4.1813    1.0425 H   0  0  0  0  0  0  0  0  0  0  0  0
    7.3942    3.5302    2.6275 H   0  0  0  0  0  0  0  0  0  0  0  0
   -2.9259   -1.2133    1.2848 F   0  0  0  0  0  0  0  0  0  0  0  0
   -1.7358   -1.9716   -0.3551 F   0  0  0  0  0  0  0  0  0  0  0  0
   -0.8516   -1.6856    1.6344 F   0  0  0  0  0  0  0  0  0  0  0  0
  1  2  2  0  0  0  0
  1  7  1  0  0  0  0
  1  8  1  0  0  0  0
  2  3  1  0  0  0  0
  2 11  1  0  0  0  0
  3  4  1  0  0  0  0
  3 18  2  0  0  0  0
  4  5  1  0  0  0  0
  4 12  1  0  0  0  0
  5  6  1  0  0  0  0
  5 14  1  0  0  0  0
  5 27  1  1  0  0  0
  6  7  1  0  0  0  0
  6 15  2  0  0  0  0
  7 17  1  0  0  0  0
  8  9  2  0  0  0  0
  8 28  1  0  0  0  0
  9 10  1  0  0  0  0
  9 29  1  0  0  0  0
 10 11  2  0  0  0  0
 10 30  1  0  0  0  0
 11 19  1  0  0  0  0
 12 13  1  0  0  0  0
 12 31  1  0  0  0  0
 12 32  1  0  0  0  0
 13 14  1  0  0  0  0
 13 33  1  0  0  0  0
 13 34  1  0  0  0  0
 14 35  1  0  0  0  0
 14 36  1  0  0  0  0
 15 16  1  0  0  0  0
 15 20  1  0  0  0  0
 16 17  2  0  0  0  0
 17 37  1  0  0  0  0
 19 47  1  0  0  0  0
 19 48  1  0  0  0  0
 19 49  1  0  0  0  0
 20 21  2  0  0  0  0
 20 22  1  0  0  0  0
 22 23  1  0  0  0  0
 23 24  1  0  0  0  0
 23 25  1  0  0  0  0
 23 26  1  0  0  0  0
 24 38  1  0  0  0  0
 24 39  1  0  0  0  0
 24 40  1  0  0  0  0
 25 41  1  0  0  0  0
 25 42  1  0  0  0  0
 25 43  1  0  0  0  0
 26 44  1  0  0  0  0
 26 45  1  0  0  0  0
 26 46  1  0  0  0  0
M  END
