Ro16-6950
 OpenBabel04201808233D
Structure written by MMmdl.
 48 51  0  0  0  0  0  0  0  0999 V2000
    0.3060    2.0535   -0.0206 C   0  0  0  0  0  0  0  0  0  0  0  0
   -0.0630    0.7694    0.4106 C   0  0  0  0  0  0  0  0  0  0  0  0
    0.9209   -0.3359    0.4657 C   0  0  0  0  0  0  0  0  0  0  0  0
    2.1330   -0.1321    1.0698 N   0  0  0  0  0  0  0  0  0  0  0  0
    2.5382    1.0233    1.8761 C   0  0  2  0  0  0  0  0  0  0  0  0
    2.6312    2.2178    0.9793 C   0  0  0  0  0  0  0  0  0  0  0  0
    1.6447    2.5351    0.0414 N   0  0  0  0  0  0  0  0  0  0  0  0
   -0.6964    2.9478   -0.4614 C   0  0  0  0  0  0  0  0  0  0  0  0
   -2.0479    2.6031   -0.4204 C   0  0  0  0  0  0  0  0  0  0  0  0
   -2.4264    1.3680    0.0868 C   0  0  0  0  0  0  0  0  0  0  0  0
   -1.4343    0.4594    0.4836 C   0  0  0  0  0  0  0  0  0  0  0  0
    3.1295   -1.1953    1.0859 C   0  0  0  0  0  0  0  0  0  0  0  0
    4.3929   -0.5170    1.5517 C   0  0  0  0  0  0  0  0  0  0  0  0
    3.8555    0.5390    2.5067 C   0  0  0  0  0  0  0  0  0  0  0  0
    3.4706    3.3385    0.9591 C   0  0  0  0  0  0  0  0  0  0  0  0
    3.2395    4.0815   -0.1854 N   0  0  0  0  0  0  0  0  0  0  0  0
    2.1525    3.5700   -0.7108 C   0  0  0  0  0  0  0  0  0  0  0  0
    0.6344   -1.3953   -0.0946 O   0  0  0  0  0  0  0  0  0  0  0  0
   -1.8752   -0.8215    1.0142 N   0  3  0  0  0  0  0  0  0  0  0  0
   -2.7119   -1.4649    0.3565 O   0  0  0  0  0  0  0  0  0  0  0  0
   -1.4106   -1.1833    2.1115 O   0  5  0  0  0  0  0  0  0  0  0  0
    4.4505    3.8141    1.9476 C   0  0  0  0  0  0  0  0  0  0  0  0
    4.7013    3.2035    2.9811 O   0  0  0  0  0  0  0  0  0  0  0  0
    5.0990    4.9388    1.5319 O   0  0  0  0  0  0  0  0  0  0  0  0
    6.1644    5.5432    2.3168 C   0  0  0  0  0  0  0  0  0  0  0  0
    5.7221    5.8805    3.7464 C   0  0  0  0  0  0  0  0  0  0  0  0
    6.4858    6.8573    1.5891 C   0  0  0  0  0  0  0  0  0  0  0  0
    7.4074    4.6504    2.3004 C   0  0  0  0  0  0  0  0  0  0  0  0
    1.7823    1.2088    2.6478 H   0  0  0  0  0  0  0  0  0  0  0  0
   -0.4567    3.9529   -0.8071 H   0  0  0  0  0  0  0  0  0  0  0  0
   -2.8030    3.3108   -0.7629 H   0  0  0  0  0  0  0  0  0  0  0  0
   -3.4831    1.1174    0.1525 H   0  0  0  0  0  0  0  0  0  0  0  0
    3.2284   -1.6633    0.1023 H   0  0  0  0  0  0  0  0  0  0  0  0
    2.7886   -1.9513    1.8023 H   0  0  0  0  0  0  0  0  0  0  0  0
    4.9086   -0.0364    0.7131 H   0  0  0  0  0  0  0  0  0  0  0  0
    5.0939   -1.2009    2.0368 H   0  0  0  0  0  0  0  0  0  0  0  0
    3.6366    0.0651    3.4722 H   0  0  0  0  0  0  0  0  0  0  0  0
    4.6244    1.2858    2.6808 H   0  0  0  0  0  0  0  0  0  0  0  0
    1.6642    3.9261   -1.6083 H   0  0  0  0  0  0  0  0  0  0  0  0
    6.4699    6.4964    4.2592 H   0  0  0  0  0  0  0  0  0  0  0  0
    5.5749    4.9827    4.3534 H   0  0  0  0  0  0  0  0  0  0  0  0
    4.7678    6.4180    3.7458 H   0  0  0  0  0  0  0  0  0  0  0  0
    7.3163    7.3938    2.0616 H   0  0  0  0  0  0  0  0  0  0  0  0
    5.6104    7.5169    1.5777 H   0  0  0  0  0  0  0  0  0  0  0  0
    6.7423    6.6691    0.5400 H   0  0  0  0  0  0  0  0  0  0  0  0
    8.2549    5.1357    2.7970 H   0  0  0  0  0  0  0  0  0  0  0  0
    7.6995    4.4100    1.2718 H   0  0  0  0  0  0  0  0  0  0  0  0
    7.2260    3.6948    2.8013 H   0  0  0  0  0  0  0  0  0  0  0  0
  1  2  2  0  0  0  0
  1  7  1  0  0  0  0
  1  8  1  0  0  0  0
  2  3  1  0  0  0  0
  2 11  1  0  0  0  0
  3  4  1  0  0  0  0
  3 18  2  0  0  0  0
  4  5  1  0  0  0  0
  4 12  1  0  0  0  0
  5  6  1  0  0  0  0
  5 14  1  0  0  0  0
  5 29  1  1  0  0  0
  6  7  1  0  0  0  0
  6 15  2  0  0  0  0
  7 17  1  0  0  0  0
  8  9  2  0  0  0  0
  8 30  1  0  0  0  0
  9 10  1  0  0  0  0
  9 31  1  0  0  0  0
 10 11  2  0  0  0  0
 10 32  1  0  0  0  0
 11 19  1  0  0  0  0
 12 13  1  0  0  0  0
 12 33  1  0  0  0  0
 12 34  1  0  0  0  0
 13 14  1  0  0  0  0
 13 35  1  0  0  0  0
 13 36  1  0  0  0  0
 14 37  1  0  0  0  0
 14 38  1  0  0  0  0
 15 16  1  0  0  0  0
 15 22  1  0  0  0  0
 16 17  2  0  0  0  0
 17 39  1  0  0  0  0
 19 20  2  0  0  0  0
 19 21  1  0  0  0  0
 22 23  2  0  0  0  0
 22 24  1  0  0  0  0
 24 25  1  0  0  0  0
 25 26  1  0  0  0  0
 25 27  1  0  0  0  0
 25 28  1  0  0  0  0
 26 40  1  0  0  0  0
 26 41  1  0  0  0  0
 26 42  1  0  0  0  0
 27 43  1  0  0  0  0
 27 44  1  0  0  0  0
 27 45  1  0  0  0  0
 28 46  1  0  0  0  0
 28 47  1  0  0  0  0
 28 48  1  0  0  0  0
M  CHG  2  19   1  21  -1
M  END
