Ro16-3031
 OpenBabel04201808233D
Structure written by MMmdl.
 43 46  0  0  0  0  0  0  0  0999 V2000
    0.2639    2.0961    0.0080 C   0  0  0  0  0  0  0  0  0  0  0  0
   -0.0056    0.7435    0.2716 C   0  0  0  0  0  0  0  0  0  0  0  0
    1.0653   -0.2768    0.2488 C   0  0  0  0  0  0  0  0  0  0  0  0
    2.2035   -0.0657    0.9865 N   0  0  0  0  0  0  0  0  0  0  0  0
    2.5205    1.0857    1.8259 C   0  0  2  0  0  0  0  0  0  0  0  0
    2.5986    2.2971    0.9522 C   0  0  0  0  0  0  0  0  0  0  0  0
    1.5739    2.6409    0.0725 N   0  0  0  0  0  0  0  0  0  0  0  0
   -0.8019    2.9798   -0.2586 C   0  0  0  0  0  0  0  0  0  0  0  0
   -2.1220    2.5357   -0.2079 C   0  0  0  0  0  0  0  0  0  0  0  0
   -2.3934    1.2123    0.1209 C   0  0  0  0  0  0  0  0  0  0  0  0
   -1.3453    0.3161    0.3560 C   0  0  0  0  0  0  0  0  0  0  0  0
    3.1502   -1.1530    1.1669 C   0  0  0  0  0  0  0  0  0  0  0  0
    3.7785   -0.8589    2.5112 C   0  0  0  0  0  0  0  0  0  0  0  0
    3.8333    0.6611    2.5011 C   0  0  0  0  0  0  0  0  0  0  0  0
    3.4985    3.3670    0.8652 C   0  0  0  0  0  0  0  0  0  0  0  0
    3.1438    4.2009   -0.1809 N   0  0  0  0  0  0  0  0  0  0  0  0
    2.0080    3.7381   -0.6305 C   0  0  0  0  0  0  0  0  0  0  0  0
    0.9151   -1.2732   -0.4538 O   0  0  0  0  0  0  0  0  0  0  0  0
   -1.8007   -1.2898    0.8205 Cl  0  0  0  0  0  0  0  0  0  0  0  0
    4.6405    3.6978    1.7277 C   0  0  0  0  0  0  0  0  0  0  0  0
    5.0073    3.0041    2.6694 O   0  0  0  0  0  0  0  0  0  0  0  0
    5.2194    4.8856    1.3829 O   0  0  0  0  0  0  0  0  0  0  0  0
    6.3222    5.3232    2.1942 C   0  0  0  0  0  0  0  0  0  0  0  0
    6.3878    6.8413    2.0823 C   0  0  0  0  0  0  0  0  0  0  0  0
    1.7235    1.1974    2.5711 H   0  0  0  0  0  0  0  0  0  0  0  0
   -0.6367    4.0379   -0.4566 H   0  0  0  0  0  0  0  0  0  0  0  0
   -2.9399    3.2284   -0.3957 H   0  0  0  0  0  0  0  0  0  0  0  0
   -3.4270    0.8789    0.1885 H   0  0  0  0  0  0  0  0  0  0  0  0
    3.8847   -1.0928    0.3562 H   0  0  0  0  0  0  0  0  0  0  0  0
    2.6625   -2.1320    1.1383 H   0  0  0  0  0  0  0  0  0  0  0  0
    4.7613   -1.3227    2.6313 H   0  0  0  0  0  0  0  0  0  0  0  0
    3.1276   -1.2041    3.3235 H   0  0  0  0  0  0  0  0  0  0  0  0
    3.9290    1.0622    3.5141 H   0  0  0  0  0  0  0  0  0  0  0  0
    4.7122    0.9591    1.9173 H   0  0  0  0  0  0  0  0  0  0  0  0
    1.4522    4.1640   -1.4561 H   0  0  0  0  0  0  0  0  0  0  0  0
    5.4507    7.2885    2.4312 H   0  0  0  0  0  0  0  0  0  0  0  0
    6.5154    7.1546    1.0403 H   0  0  0  0  0  0  0  0  0  0  0  0
    6.1556    5.0615    3.2463 H   0  0  0  0  0  0  0  0  0  0  0  0
    7.6108    4.6865    1.6862 C   0  0  0  0  0  0  0  0  0  0  0  0
    7.2110    7.2494    2.6763 H   0  0  0  0  0  0  0  0  0  0  0  0
    7.5636    3.5953    1.7639 H   0  0  0  0  0  0  0  0  0  0  0  0
    7.7702    4.9180    0.6272 H   0  0  0  0  0  0  0  0  0  0  0  0
    8.4772    5.0352    2.2562 H   0  0  0  0  0  0  0  0  0  0  0  0
  1  2  2  0  0  0  0
  1  7  1  0  0  0  0
  1  8  1  0  0  0  0
  2  3  1  0  0  0  0
  2 11  1  0  0  0  0
  3  4  1  0  0  0  0
  3 18  2  0  0  0  0
  4  5  1  0  0  0  0
  4 12  1  0  0  0  0
  5  6  1  0  0  0  0
  5 14  1  0  0  0  0
  5 25  1  1  0  0  0
  6  7  1  0  0  0  0
  6 15  2  0  0  0  0
  7 17  1  0  0  0  0
  8  9  2  0  0  0  0
  8 26  1  0  0  0  0
  9 10  1  0  0  0  0
  9 27  1  0  0  0  0
 10 11  2  0  0  0  0
 10 28  1  0  0  0  0
 11 19  1  0  0  0  0
 12 13  1  0  0  0  0
 12 29  1  0  0  0  0
 12 30  1  0  0  0  0
 13 14  1  0  0  0  0
 13 31  1  0  0  0  0
 13 32  1  0  0  0  0
 14 33  1  0  0  0  0
 14 34  1  0  0  0  0
 15 16  1  0  0  0  0
 15 20  1  0  0  0  0
 16 17  2  0  0  0  0
 17 35  1  0  0  0  0
 20 21  2  0  0  0  0
 20 22  1  0  0  0  0
 22 23  1  0  0  0  0
 23 24  1  0  0  0  0
 23 38  1  0  0  0  0
 23 39  1  0  0  0  0
 24 36  1  0  0  0  0
 24 37  1  0  0  0  0
 24 40  1  0  0  0  0
 39 41  1  0  0  0  0
 39 42  1  0  0  0  0
 39 43  1  0  0  0  0
M  END
