Ro16-7081
 OpenBabel04201808233D
Structure written by MMmdl.
 46 49  0  0  0  0  0  0  0  0999 V2000
    0.2640    2.0961    0.0078 C   0  0  0  0  0  0  0  0  0  0  0  0
   -0.0046    0.7431    0.2711 C   0  0  0  0  0  0  0  0  0  0  0  0
    1.0671   -0.2768    0.2465 C   0  0  0  0  0  0  0  0  0  0  0  0
    2.2058   -0.0649    0.9830 N   0  0  0  0  0  0  0  0  0  0  0  0
    2.5204    1.0859    1.8242 C   0  0  2  0  0  0  0  0  0  0  0  0
    2.5992    2.2983    0.9518 C   0  0  0  0  0  0  0  0  0  0  0  0
    1.5734    2.6426    0.0734 N   0  0  0  0  0  0  0  0  0  0  0  0
   -0.8028    2.9782   -0.2591 C   0  0  0  0  0  0  0  0  0  0  0  0
   -2.1229    2.5342   -0.2064 C   0  0  0  0  0  0  0  0  0  0  0  0
   -2.3932    1.2112    0.1232 C   0  0  0  0  0  0  0  0  0  0  0  0
   -1.3443    0.3154    0.3570 C   0  0  0  0  0  0  0  0  0  0  0  0
    3.1511   -1.1530    1.1679 C   0  0  0  0  0  0  0  0  0  0  0  0
    3.7692   -0.8603    2.5173 C   0  0  0  0  0  0  0  0  0  0  0  0
    3.8305    0.6597    2.5039 C   0  0  0  0  0  0  0  0  0  0  0  0
    3.4991    3.3681    0.8645 C   0  0  0  0  0  0  0  0  0  0  0  0
    3.1436    4.2024   -0.1809 N   0  0  0  0  0  0  0  0  0  0  0  0
    2.0064    3.7406   -0.6287 C   0  0  0  0  0  0  0  0  0  0  0  0
    0.9171   -1.2729   -0.4565 O   0  0  0  0  0  0  0  0  0  0  0  0
   -1.7985   -1.2908    0.8210 Cl  0  0  0  0  0  0  0  0  0  0  0  0
    4.6427    3.6973    1.7255 C   0  0  0  0  0  0  0  0  0  0  0  0
    5.0108    3.0033    2.6668 O   0  0  0  0  0  0  0  0  0  0  0  0
    5.2270    4.8840    1.3828 O   0  0  0  0  0  0  0  0  0  0  0  0
    6.3283    5.2672    2.2138 C   0  0  0  0  0  0  0  0  0  0  0  0
    6.8621    6.6034    1.7091 C   0  0  0  0  0  0  0  0  0  0  0  0
    1.7211    1.1963    2.5673 H   0  0  0  0  0  0  0  0  0  0  0  0
   -0.6387    4.0362   -0.4575 H   0  0  0  0  0  0  0  0  0  0  0  0
   -2.9414    3.2264   -0.3933 H   0  0  0  0  0  0  0  0  0  0  0  0
   -3.4266    0.8775    0.1924 H   0  0  0  0  0  0  0  0  0  0  0  0
    3.8923   -1.0909    0.3635 H   0  0  0  0  0  0  0  0  0  0  0  0
    2.6652   -2.1326    1.1330 H   0  0  0  0  0  0  0  0  0  0  0  0
    4.7481   -1.3290    2.6475 H   0  0  0  0  0  0  0  0  0  0  0  0
    3.1087   -1.2010    3.3236 H   0  0  0  0  0  0  0  0  0  0  0  0
    3.9254    1.0631    3.5160 H   0  0  0  0  0  0  0  0  0  0  0  0
    4.7115    0.9534    1.9206 H   0  0  0  0  0  0  0  0  0  0  0  0
    1.4493    4.1671   -1.4529 H   0  0  0  0  0  0  0  0  0  0  0  0
    8.0556    7.0787    2.5320 C   0  0  0  0  0  0  0  0  0  0  0  0
    6.0588    7.3505    1.7391 H   0  0  0  0  0  0  0  0  0  0  0  0
    7.1426    6.5062    0.6529 H   0  0  0  0  0  0  0  0  0  0  0  0
    5.9887    5.3657    3.2517 H   0  0  0  0  0  0  0  0  0  0  0  0
    7.1123    4.5032    2.1551 H   0  0  0  0  0  0  0  0  0  0  0  0
    7.7606    7.1959    3.5810 H   0  0  0  0  0  0  0  0  0  0  0  0
    8.8529    6.3270    2.5010 H   0  0  0  0  0  0  0  0  0  0  0  0
    8.5980    8.4016    2.0166 C   0  0  0  0  0  0  0  0  0  0  0  0
    9.4446    8.7271    2.6288 H   0  0  0  0  0  0  0  0  0  0  0  0
    8.9434    8.3076    0.9821 H   0  0  0  0  0  0  0  0  0  0  0  0
    7.8320    9.1824    2.0539 H   0  0  0  0  0  0  0  0  0  0  0  0
  1  2  2  0  0  0  0
  1  7  1  0  0  0  0
  1  8  1  0  0  0  0
  2  3  1  0  0  0  0
  2 11  1  0  0  0  0
  3  4  1  0  0  0  0
  3 18  2  0  0  0  0
  4  5  1  0  0  0  0
  4 12  1  0  0  0  0
  5  6  1  0  0  0  0
  5 14  1  0  0  0  0
  5 25  1  1  0  0  0
  6  7  1  0  0  0  0
  6 15  2  0  0  0  0
  7 17  1  0  0  0  0
  8  9  2  0  0  0  0
  8 26  1  0  0  0  0
  9 10  1  0  0  0  0
  9 27  1  0  0  0  0
 10 11  2  0  0  0  0
 10 28  1  0  0  0  0
 11 19  1  0  0  0  0
 12 13  1  0  0  0  0
 12 29  1  0  0  0  0
 12 30  1  0  0  0  0
 13 14  1  0  0  0  0
 13 31  1  0  0  0  0
 13 32  1  0  0  0  0
 14 33  1  0  0  0  0
 14 34  1  0  0  0  0
 15 16  1  0  0  0  0
 15 20  1  0  0  0  0
 16 17  2  0  0  0  0
 17 35  1  0  0  0  0
 20 21  2  0  0  0  0
 20 22  1  0  0  0  0
 22 23  1  0  0  0  0
 23 24  1  0  0  0  0
 23 39  1  0  0  0  0
 23 40  1  0  0  0  0
 24 36  1  0  0  0  0
 24 37  1  0  0  0  0
 24 38  1  0  0  0  0
 36 41  1  0  0  0  0
 36 42  1  0  0  0  0
 36 43  1  0  0  0  0
 43 44  1  0  0  0  0
 43 45  1  0  0  0  0
 43 46  1  0  0  0  0
M  END
