Ro16-7082
 OpenBabel04201808233D
Structure written by MMmdl.
 46 49  0  0  0  0  0  0  0  0999 V2000
    0.2661    2.0946    0.0099 C   0  0  0  0  0  0  0  0  0  0  0  0
   -0.0049    0.7415    0.2666 C   0  0  0  0  0  0  0  0  0  0  0  0
    1.0660   -0.2788    0.2444 C   0  0  0  0  0  0  0  0  0  0  0  0
    2.2023   -0.0695    0.9857 N   0  0  0  0  0  0  0  0  0  0  0  0
    2.5231    1.0826    1.8232 C   0  0  2  0  0  0  0  0  0  0  0  0
    2.6026    2.2940    0.9492 C   0  0  0  0  0  0  0  0  0  0  0  0
    1.5764    2.6372    0.0706 N   0  0  0  0  0  0  0  0  0  0  0  0
   -0.7988    2.9824   -0.2473 C   0  0  0  0  0  0  0  0  0  0  0  0
   -2.1195    2.5410   -0.1958 C   0  0  0  0  0  0  0  0  0  0  0  0
   -2.3927    1.2157    0.1218 C   0  0  0  0  0  0  0  0  0  0  0  0
   -1.3456    0.3155    0.3471 C   0  0  0  0  0  0  0  0  0  0  0  0
    3.1417   -1.1618    1.1740 C   0  0  0  0  0  0  0  0  0  0  0  0
    3.7698   -0.8648    2.5179 C   0  0  0  0  0  0  0  0  0  0  0  0
    3.8355    0.6547    2.4975 C   0  0  0  0  0  0  0  0  0  0  0  0
    3.4979    3.3683    0.8643 C   0  0  0  0  0  0  0  0  0  0  0  0
    3.1412    4.2001   -0.1838 N   0  0  0  0  0  0  0  0  0  0  0  0
    2.0076    3.7338   -0.6343 C   0  0  0  0  0  0  0  0  0  0  0  0
    0.9179   -1.2740   -0.4603 O   0  0  0  0  0  0  0  0  0  0  0  0
   -1.8043   -1.2947    0.7925 Cl  0  0  0  0  0  0  0  0  0  0  0  0
    4.6357    3.7105    1.7282 C   0  0  0  0  0  0  0  0  0  0  0  0
    5.0104    3.0256    2.6730 O   0  0  0  0  0  0  0  0  0  0  0  0
    5.1983    4.9076    1.3881 O   0  0  0  0  0  0  0  0  0  0  0  0
    6.2663    5.3391    2.2391 C   0  0  0  0  0  0  0  0  0  0  0  0
    6.6311    6.7860    1.8831 C   0  0  0  0  0  0  0  0  0  0  0  0
    1.7272    1.1965    2.5695 H   0  0  0  0  0  0  0  0  0  0  0  0
   -0.6316    4.0411   -0.4384 H   0  0  0  0  0  0  0  0  0  0  0  0
   -2.9360    3.2371   -0.3746 H   0  0  0  0  0  0  0  0  0  0  0  0
   -3.4266    0.8833    0.1879 H   0  0  0  0  0  0  0  0  0  0  0  0
    3.8785   -1.1103    0.3648 H   0  0  0  0  0  0  0  0  0  0  0  0
    2.6484   -2.1382    1.1492 H   0  0  0  0  0  0  0  0  0  0  0  0
    4.7487   -1.3353    2.6425 H   0  0  0  0  0  0  0  0  0  0  0  0
    3.1150   -1.2002    3.3312 H   0  0  0  0  0  0  0  0  0  0  0  0
    3.9372    1.0612    3.5078 H   0  0  0  0  0  0  0  0  0  0  0  0
    4.7136    0.9440    1.9077 H   0  0  0  0  0  0  0  0  0  0  0  0
    1.4510    4.1584   -1.4601 H   0  0  0  0  0  0  0  0  0  0  0  0
    7.8634    7.2336    2.6663 C   0  0  0  0  0  0  0  0  0  0  0  0
    5.4577    7.7328    2.1497 C   0  0  0  0  0  0  0  0  0  0  0  0
    6.8571    6.8371    0.8103 H   0  0  0  0  0  0  0  0  0  0  0  0
    5.9605    5.2761    3.2907 H   0  0  0  0  0  0  0  0  0  0  0  0
    7.1291    4.6826    2.0759 H   0  0  0  0  0  0  0  0  0  0  0  0
    7.6822    7.2007    3.7459 H   0  0  0  0  0  0  0  0  0  0  0  0
    8.7200    6.5877    2.4464 H   0  0  0  0  0  0  0  0  0  0  0  0
    8.1420    8.2586    2.4000 H   0  0  0  0  0  0  0  0  0  0  0  0
    5.7276    8.7656    1.9045 H   0  0  0  0  0  0  0  0  0  0  0  0
    4.5881    7.4649    1.5407 H   0  0  0  0  0  0  0  0  0  0  0  0
    5.1559    7.7035    3.2023 H   0  0  0  0  0  0  0  0  0  0  0  0
  1  2  2  0  0  0  0
  1  7  1  0  0  0  0
  1  8  1  0  0  0  0
  2  3  1  0  0  0  0
  2 11  1  0  0  0  0
  3  4  1  0  0  0  0
  3 18  2  0  0  0  0
  4  5  1  0  0  0  0
  4 12  1  0  0  0  0
  5  6  1  0  0  0  0
  5 14  1  0  0  0  0
  5 25  1  1  0  0  0
  6  7  1  0  0  0  0
  6 15  2  0  0  0  0
  7 17  1  0  0  0  0
  8  9  2  0  0  0  0
  8 26  1  0  0  0  0
  9 10  1  0  0  0  0
  9 27  1  0  0  0  0
 10 11  2  0  0  0  0
 10 28  1  0  0  0  0
 11 19  1  0  0  0  0
 12 13  1  0  0  0  0
 12 29  1  0  0  0  0
 12 30  1  0  0  0  0
 13 14  1  0  0  0  0
 13 31  1  0  0  0  0
 13 32  1  0  0  0  0
 14 33  1  0  0  0  0
 14 34  1  0  0  0  0
 15 16  1  0  0  0  0
 15 20  1  0  0  0  0
 16 17  2  0  0  0  0
 17 35  1  0  0  0  0
 20 21  2  0  0  0  0
 20 22  1  0  0  0  0
 22 23  1  0  0  0  0
 23 24  1  0  0  0  0
 23 39  1  0  0  0  0
 23 40  1  0  0  0  0
 24 36  1  0  0  0  0
 24 37  1  0  0  0  0
 24 38  1  0  0  0  0
 36 41  1  0  0  0  0
 36 42  1  0  0  0  0
 36 43  1  0  0  0  0
 37 44  1  0  0  0  0
 37 45  1  0  0  0  0
 37 46  1  0  0  0  0
M  END
