Ro05-4435
 OpenBabel04201808233D
Structure written by MMmdl.
 32 34  0  0  0  0  0  0  0  0999 V2000
   -2.1035    2.5016   -0.2292 C   0  0  0  0  0  0  0  0  0  0  0  0
   -2.3372    1.1345   -0.0630 C   0  0  0  0  0  0  0  0  0  0  0  0
   -1.2675    0.2545    0.1475 C   0  0  0  0  0  0  0  0  0  0  0  0
    0.0506    0.7468    0.2062 C   0  0  0  0  0  0  0  0  0  0  0  0
    0.2820    2.1318    0.1085 C   0  0  0  0  0  0  0  0  0  0  0  0
   -0.7970    2.9912   -0.1496 C   0  0  0  0  0  0  0  0  0  0  0  0
    1.1712   -0.2501    0.2367 C   0  0  0  0  0  0  0  0  0  0  0  0
    2.2613   -0.1404    0.9233 N   0  0  0  0  0  0  0  0  0  0  0  0
    2.4245    1.0355    1.7756 C   0  0  0  0  0  0  0  0  0  0  0  0
    2.6296    2.2738    0.9180 C   0  0  0  0  0  0  0  0  0  0  0  0
    1.5391    2.7479    0.2363 N   0  0  0  0  0  0  0  0  0  0  0  0
    1.0448   -1.4587   -0.6277 C   0  0  0  0  0  0  0  0  0  0  0  0
    3.7058    2.8795    0.8818 O   0  0  0  0  0  0  0  0  0  0  0  0
    1.4674   -2.7080   -0.1556 C   0  0  0  0  0  0  0  0  0  0  0  0
    1.3356   -3.8366   -0.9682 C   0  0  0  0  0  0  0  0  0  0  0  0
    0.7806   -3.7221   -2.2445 C   0  0  0  0  0  0  0  0  0  0  0  0
    0.3538   -2.4786   -2.7120 C   0  0  0  0  0  0  0  0  0  0  0  0
    0.4842   -1.3532   -1.9020 C   0  0  0  0  0  0  0  0  0  0  0  0
   -3.7100    0.6154   -0.1301 N   0  3  0  0  0  0  0  0  0  0  0  0
   -3.8877   -0.6059    0.0369 O   0  0  0  0  0  0  0  0  0  0  0  0
   -4.6362    1.4186   -0.3501 O   0  5  0  0  0  0  0  0  0  0  0  0
    0.0889   -0.1660   -2.3864 F   0  0  0  0  0  0  0  0  0  0  0  0
   -2.9176    3.2005   -0.4086 H   0  0  0  0  0  0  0  0  0  0  0  0
   -1.4553   -0.8118    0.2513 H   0  0  0  0  0  0  0  0  0  0  0  0
   -0.6373    4.0635   -0.2577 H   0  0  0  0  0  0  0  0  0  0  0  0
    3.3192    0.8971    2.3924 H   0  0  0  0  0  0  0  0  0  0  0  0
    1.5842    1.1726    2.4658 H   0  0  0  0  0  0  0  0  0  0  0  0
    1.6484    3.6862   -0.1391 H   0  0  0  0  0  0  0  0  0  0  0  0
    1.8876   -2.8173    0.8419 H   0  0  0  0  0  0  0  0  0  0  0  0
    1.6629   -4.8093   -0.6039 H   0  0  0  0  0  0  0  0  0  0  0  0
    0.6798   -4.6040   -2.8749 H   0  0  0  0  0  0  0  0  0  0  0  0
   -0.0766   -2.3826   -3.7052 H   0  0  0  0  0  0  0  0  0  0  0  0
  1  2  2  0  0  0  0
  1  6  1  0  0  0  0
  1 23  1  0  0  0  0
  2  3  1  0  0  0  0
  2 19  1  0  0  0  0
  3  4  2  0  0  0  0
  3 24  1  0  0  0  0
  4  5  1  0  0  0  0
  4  7  1  0  0  0  0
  5  6  2  0  0  0  0
  5 11  1  0  0  0  0
  6 25  1  0  0  0  0
  7  8  2  0  0  0  0
  7 12  1  0  0  0  0
  8  9  1  0  0  0  0
  9 10  1  0  0  0  0
  9 26  1  0  0  0  0
  9 27  1  0  0  0  0
 10 11  1  0  0  0  0
 10 13  2  0  0  0  0
 11 28  1  0  0  0  0
 12 14  2  0  0  0  0
 12 18  1  0  0  0  0
 14 15  1  0  0  0  0
 14 29  1  0  0  0  0
 15 16  2  0  0  0  0
 15 30  1  0  0  0  0
 16 17  1  0  0  0  0
 16 31  1  0  0  0  0
 17 18  2  0  0  0  0
 17 32  1  0  0  0  0
 18 22  1  0  0  0  0
 19 20  2  0  0  0  0
 19 21  1  0  0  0  0
M  CHG  2  19   1  21  -1
M  END
