Ro16-4020
 OpenBabel04201808233D
Structure written by MMmdl.
 52 55  0  0  0  0  0  0  0  0999 V2000
    0.2632    2.0962    0.0128 C   0  0  0  0  0  0  0  0  0  0  0  0
   -0.0035    0.7415    0.2654 C   0  0  0  0  0  0  0  0  0  0  0  0
    1.0700   -0.2763    0.2402 C   0  0  0  0  0  0  0  0  0  0  0  0
    2.2037   -0.0670    0.9851 N   0  0  0  0  0  0  0  0  0  0  0  0
    2.5178    1.0844    1.8265 C   0  0  2  0  0  0  0  0  0  0  0  0
    2.6005    2.2961    0.9526 C   0  0  0  0  0  0  0  0  0  0  0  0
    1.5721    2.6420    0.0769 N   0  0  0  0  0  0  0  0  0  0  0  0
   -0.8037    2.9814   -0.2444 C   0  0  0  0  0  0  0  0  0  0  0  0
   -2.1229    2.5359   -0.1978 C   0  0  0  0  0  0  0  0  0  0  0  0
   -2.3921    1.2088    0.1159 C   0  0  0  0  0  0  0  0  0  0  0  0
   -1.3429    0.3117    0.3443 C   0  0  0  0  0  0  0  0  0  0  0  0
    3.1452   -1.1572    1.1762 C   0  0  0  0  0  0  0  0  0  0  0  0
    3.7594   -0.8636    2.5272 C   0  0  0  0  0  0  0  0  0  0  0  0
    3.8236    0.6564    2.5132 C   0  0  0  0  0  0  0  0  0  0  0  0
    3.5004    3.3659    0.8621 C   0  0  0  0  0  0  0  0  0  0  0  0
    3.1397    4.2012   -0.1820 N   0  0  0  0  0  0  0  0  0  0  0  0
    2.0014    3.7404   -0.6259 C   0  0  0  0  0  0  0  0  0  0  0  0
    0.9249   -1.2688   -0.4691 O   0  0  0  0  0  0  0  0  0  0  0  0
   -1.7970   -1.2991    0.7928 Cl  0  0  0  0  0  0  0  0  0  0  0  0
    4.6473    3.7029    1.7158 C   0  0  0  0  0  0  0  0  0  0  0  0
    5.0284    3.0167    2.6572 O   0  0  0  0  0  0  0  0  0  0  0  0
    5.2093    4.8982    1.3697 O   0  0  0  0  0  0  0  0  0  0  0  0
    6.2766    5.3355    2.2179 C   0  0  0  0  0  0  0  0  0  0  0  0
    6.6644    6.7453    1.7859 C   0  0  0  0  0  0  0  0  0  0  0  0
    1.7156    1.1970    2.5659 H   0  0  0  0  0  0  0  0  0  0  0  0
   -0.6388    4.0415   -0.4317 H   0  0  0  0  0  0  0  0  0  0  0  0
   -2.9415    3.2296   -0.3782 H   0  0  0  0  0  0  0  0  0  0  0  0
   -3.4253    0.8732    0.1760 H   0  0  0  0  0  0  0  0  0  0  0  0
    3.8894   -1.1001    0.3741 H   0  0  0  0  0  0  0  0  0  0  0  0
    2.6555   -2.1350    1.1417 H   0  0  0  0  0  0  0  0  0  0  0  0
    4.7376   -1.3338    2.6611 H   0  0  0  0  0  0  0  0  0  0  0  0
    3.0962   -1.2023    3.3319 H   0  0  0  0  0  0  0  0  0  0  0  0
    3.9137    1.0606    3.5257 H   0  0  0  0  0  0  0  0  0  0  0  0
    4.7079    0.9474    1.9342 H   0  0  0  0  0  0  0  0  0  0  0  0
    1.4419    4.1682   -1.4481 H   0  0  0  0  0  0  0  0  0  0  0  0
    7.7868    7.3178    2.6475 C   0  0  0  0  0  0  0  0  0  0  0  0
    5.7806    7.3941    1.8362 H   0  0  0  0  0  0  0  0  0  0  0  0
    6.9662    6.7320    0.7310 H   0  0  0  0  0  0  0  0  0  0  0  0
    5.9437    5.3415    3.2624 H   0  0  0  0  0  0  0  0  0  0  0  0
    7.1287    4.6553    2.1069 H   0  0  0  0  0  0  0  0  0  0  0  0
    7.4758    7.3259    3.6990 H   0  0  0  0  0  0  0  0  0  0  0  0
    8.6715    6.6735    2.5764 H   0  0  0  0  0  0  0  0  0  0  0  0
    8.1478    8.7374    2.2096 C   0  0  0  0  0  0  0  0  0  0  0  0
    9.2571    9.3218    3.0685 C   0  0  0  0  0  0  0  0  0  0  0  0
    8.4685    8.7334    1.1612 H   0  0  0  0  0  0  0  0  0  0  0  0
    7.2644    9.3830    2.2768 H   0  0  0  0  0  0  0  0  0  0  0  0
    9.4945   10.3385    2.7401 C   0  0  0  0  0  0  0  0  0  0  0  0
    8.9568    9.3656    4.1202 H   0  0  0  0  0  0  0  0  0  0  0  0
   10.1683    8.7194    2.9955 H   0  0  0  0  0  0  0  0  0  0  0  0
   10.1883   10.6930    3.2837 H   0  0  0  0  0  0  0  0  0  0  0  0
    9.7800   10.3202    1.8342 H   0  0  0  0  0  0  0  0  0  0  0  0
    8.7212   10.8849    2.8175 H   0  0  0  0  0  0  0  0  0  0  0  0
  1  2  2  0  0  0  0
  1  7  1  0  0  0  0
  1  8  1  0  0  0  0
  2  3  1  0  0  0  0
  2 11  1  0  0  0  0
  3  4  1  0  0  0  0
  3 18  2  0  0  0  0
  4  5  1  0  0  0  0
  4 12  1  0  0  0  0
  5  6  1  0  0  0  0
  5 14  1  0  0  0  0
  5 25  1  1  0  0  0
  6  7  1  0  0  0  0
  6 15  2  0  0  0  0
  7 17  1  0  0  0  0
  8  9  2  0  0  0  0
  8 26  1  0  0  0  0
  9 10  1  0  0  0  0
  9 27  1  0  0  0  0
 10 11  2  0  0  0  0
 10 28  1  0  0  0  0
 11 19  1  0  0  0  0
 12 13  1  0  0  0  0
 12 29  1  0  0  0  0
 12 30  1  0  0  0  0
 13 14  1  0  0  0  0
 13 31  1  0  0  0  0
 13 32  1  0  0  0  0
 14 33  1  0  0  0  0
 14 34  1  0  0  0  0
 15 16  1  0  0  0  0
 15 20  1  0  0  0  0
 16 17  2  0  0  0  0
 17 35  1  0  0  0  0
 20 21  2  0  0  0  0
 20 22  1  0  0  0  0
 22 23  1  0  0  0  0
 23 24  1  0  0  0  0
 23 39  1  0  0  0  0
 23 40  1  0  0  0  0
 24 36  1  0  0  0  0
 24 37  1  0  0  0  0
 24 38  1  0  0  0  0
 36 41  1  0  0  0  0
 36 42  1  0  0  0  0
 43 36  1  0  0  0  0
 43 45  1  0  0  0  0
 43 46  1  0  0  0  0
 44 43  1  0  0  0  0
 44 47  1  0  0  0  0
 44 48  1  0  0  0  0
 44 49  1  0  0  0  0
 47 50  1  0  0  0  0
 47 51  1  0  0  0  0
 47 52  1  0  0  0  0
M  END
