Ro17-3206
 OpenBabel04201808233D
Structure written by MMmdl.
 53 57  0  0  0  0  0  0  0  0999 V2000
    0.2671    2.0945    0.0068 C   0  0  0  0  0  0  0  0  0  0  0  0
   -0.0043    0.7429    0.2729 C   0  0  0  0  0  0  0  0  0  0  0  0
    1.0650   -0.2792    0.2468 C   0  0  0  0  0  0  0  0  0  0  0  0
    2.2067   -0.0677    0.9788 N   0  0  0  0  0  0  0  0  0  0  0  0
    2.5233    1.0825    1.8203 C   0  0  2  0  0  0  0  0  0  0  0  0
    2.6035    2.2949    0.9479 C   0  0  0  0  0  0  0  0  0  0  0  0
    1.5779    2.6375    0.0682 N   0  0  0  0  0  0  0  0  0  0  0  0
   -0.7977    2.9800   -0.2576 C   0  0  0  0  0  0  0  0  0  0  0  0
   -2.1185    2.5391   -0.2022 C   0  0  0  0  0  0  0  0  0  0  0  0
   -2.3916    1.2172    0.1301 C   0  0  0  0  0  0  0  0  0  0  0  0
   -1.3447    0.3189    0.3631 C   0  0  0  0  0  0  0  0  0  0  0  0
    3.1518   -1.1563    1.1616 C   0  0  0  0  0  0  0  0  0  0  0  0
    3.7693   -0.8667    2.5121 C   0  0  0  0  0  0  0  0  0  0  0  0
    3.8318    0.6534    2.5009 C   0  0  0  0  0  0  0  0  0  0  0  0
    3.4981    3.3703    0.8647 C   0  0  0  0  0  0  0  0  0  0  0  0
    3.1441    4.2003   -0.1852 N   0  0  0  0  0  0  0  0  0  0  0  0
    2.0116    3.7324   -0.6380 C   0  0  0  0  0  0  0  0  0  0  0  0
    0.9100   -1.2765   -0.4535 O   0  0  0  0  0  0  0  0  0  0  0  0
   -1.8017   -1.2851    0.8318 Cl  0  0  0  0  0  0  0  0  0  0  0  0
    4.6322    3.7105    1.7349 C   0  0  0  0  0  0  0  0  0  0  0  0
    4.9971    3.0204    2.6796 O   0  0  0  0  0  0  0  0  0  0  0  0
    5.2007    4.9079    1.4018 O   0  0  0  0  0  0  0  0  0  0  0  0
    6.2952    5.3595    2.2298 C   0  0  0  0  0  0  0  0  0  0  0  0
    7.1512    6.2654    1.3412 C   0  0  0  0  0  0  0  0  0  0  0  0
    1.7241    1.1939    2.5629 H   0  0  0  0  0  0  0  0  0  0  0  0
   -0.6305    4.0377   -0.4562 H   0  0  0  0  0  0  0  0  0  0  0  0
   -2.9356    3.2323   -0.3901 H   0  0  0  0  0  0  0  0  0  0  0  0
   -3.4256    0.8870    0.2028 H   0  0  0  0  0  0  0  0  0  0  0  0
    3.8940   -1.0920    0.3580 H   0  0  0  0  0  0  0  0  0  0  0  0
    2.6664   -2.1360    1.1242 H   0  0  0  0  0  0  0  0  0  0  0  0
    4.7481   -1.3365    2.6424 H   0  0  0  0  0  0  0  0  0  0  0  0
    3.1077   -1.2087    3.3169 H   0  0  0  0  0  0  0  0  0  0  0  0
    3.9245    1.0554    3.5140 H   0  0  0  0  0  0  0  0  0  0  0  0
    4.7138    0.9478    1.9197 H   0  0  0  0  0  0  0  0  0  0  0  0
    1.4575    4.1532   -1.4672 H   0  0  0  0  0  0  0  0  0  0  0  0
    8.3392    6.9296    2.0332 C   0  0  0  0  0  0  0  0  0  0  0  0
    6.5177    7.0285    0.8691 H   0  0  0  0  0  0  0  0  0  0  0  0
    7.5281    5.6601    0.5057 H   0  0  0  0  0  0  0  0  0  0  0  0
    6.9059    4.4968    2.5269 H   0  0  0  0  0  0  0  0  0  0  0  0
    8.9746    7.3588    1.2481 H   0  0  0  0  0  0  0  0  0  0  0  0
    8.9536    6.1908    2.5599 H   0  0  0  0  0  0  0  0  0  0  0  0
    7.9187    8.0640    2.9619 C   0  0  0  0  0  0  0  0  0  0  0  0
    7.5468    7.6384    4.3788 C   0  0  0  0  0  0  0  0  0  0  0  0
    6.7789    6.3299    4.5357 C   0  0  0  0  0  0  0  0  0  0  0  0
    5.7231    6.0621    3.4687 C   0  0  0  0  0  0  0  0  0  0  0  0
    8.7450    8.7821    3.0391 H   0  0  0  0  0  0  0  0  0  0  0  0
    7.0844    8.6204    2.5166 H   0  0  0  0  0  0  0  0  0  0  0  0
    8.4622    7.5649    4.9803 H   0  0  0  0  0  0  0  0  0  0  0  0
    6.9622    8.4497    4.8315 H   0  0  0  0  0  0  0  0  0  0  0  0
    7.4856    5.4916    4.5779 H   0  0  0  0  0  0  0  0  0  0  0  0
    6.2892    6.3498    5.5177 H   0  0  0  0  0  0  0  0  0  0  0  0
    5.1941    6.9810    3.1874 H   0  0  0  0  0  0  0  0  0  0  0  0
    4.9549    5.4159    3.9119 H   0  0  0  0  0  0  0  0  0  0  0  0
  1  2  2  0  0  0  0
  1  7  1  0  0  0  0
  1  8  1  0  0  0  0
  2  3  1  0  0  0  0
  2 11  1  0  0  0  0
  3  4  1  0  0  0  0
  3 18  2  0  0  0  0
  4  5  1  0  0  0  0
  4 12  1  0  0  0  0
  5  6  1  0  0  0  0
  5 14  1  0  0  0  0
  5 25  1  1  0  0  0
  6  7  1  0  0  0  0
  6 15  2  0  0  0  0
  7 17  1  0  0  0  0
  8  9  2  0  0  0  0
  8 26  1  0  0  0  0
  9 10  1  0  0  0  0
  9 27  1  0  0  0  0
 10 11  2  0  0  0  0
 10 28  1  0  0  0  0
 11 19  1  0  0  0  0
 12 13  1  0  0  0  0
 12 29  1  0  0  0  0
 12 30  1  0  0  0  0
 13 14  1  0  0  0  0
 13 31  1  0  0  0  0
 13 32  1  0  0  0  0
 14 33  1  0  0  0  0
 14 34  1  0  0  0  0
 15 16  1  0  0  0  0
 15 20  1  0  0  0  0
 16 17  2  0  0  0  0
 17 35  1  0  0  0  0
 20 21  2  0  0  0  0
 20 22  1  0  0  0  0
 22 23  1  0  0  0  0
 23 24  1  0  0  0  0
 23 39  1  0  0  0  0
 23 45  1  0  0  0  0
 24 36  1  0  0  0  0
 24 37  1  0  0  0  0
 24 38  1  0  0  0  0
 36 40  1  0  0  0  0
 36 41  1  0  0  0  0
 42 36  1  0  0  0  0
 42 46  1  0  0  0  0
 42 47  1  0  0  0  0
 43 42  1  0  0  0  0
 43 48  1  0  0  0  0
 43 49  1  0  0  0  0
 44 43  1  0  0  0  0
 44 50  1  0  0  0  0
 44 51  1  0  0  0  0
 45 44  1  0  0  0  0
 45 52  1  0  0  0  0
 45 53  1  0  0  0  0
M  END
