Ro17-3207
 OpenBabel04201808233D
Structure written by MMmdl.
 56 60  0  0  0  0  0  0  0  0999 V2000
    0.2650    2.0955    0.0118 C   0  0  0  0  0  0  0  0  0  0  0  0
   -0.0057    0.7427    0.2709 C   0  0  0  0  0  0  0  0  0  0  0  0
    1.0645   -0.2790    0.2478 C   0  0  0  0  0  0  0  0  0  0  0  0
    2.2036   -0.0698    0.9852 N   0  0  0  0  0  0  0  0  0  0  0  0
    2.5253    1.0813    1.8235 C   0  0  2  0  0  0  0  0  0  0  0  0
    2.6024    2.2941    0.9512 C   0  0  0  0  0  0  0  0  0  0  0  0
    1.5751    2.6384    0.0740 N   0  0  0  0  0  0  0  0  0  0  0  0
   -0.7996    2.9819   -0.2521 C   0  0  0  0  0  0  0  0  0  0  0  0
   -2.1201    2.5398   -0.2063 C   0  0  0  0  0  0  0  0  0  0  0  0
   -2.3931    1.2158    0.1161 C   0  0  0  0  0  0  0  0  0  0  0  0
   -1.3464    0.3172    0.3500 C   0  0  0  0  0  0  0  0  0  0  0  0
    3.1442   -1.1624    1.1709 C   0  0  0  0  0  0  0  0  0  0  0  0
    3.7725   -0.8676    2.5151 C   0  0  0  0  0  0  0  0  0  0  0  0
    3.8377    0.6518    2.4971 C   0  0  0  0  0  0  0  0  0  0  0  0
    3.4966    3.3695    0.8664 C   0  0  0  0  0  0  0  0  0  0  0  0
    3.1397    4.2011   -0.1811 N   0  0  0  0  0  0  0  0  0  0  0  0
    2.0059    3.7353   -0.6305 C   0  0  0  0  0  0  0  0  0  0  0  0
    0.9136   -1.2752   -0.4545 O   0  0  0  0  0  0  0  0  0  0  0  0
   -1.8053   -1.2901    0.8043 Cl  0  0  0  0  0  0  0  0  0  0  0  0
    4.6373    3.7107    1.7261 C   0  0  0  0  0  0  0  0  0  0  0  0
    5.0143    3.0273    2.6707 O   0  0  0  0  0  0  0  0  0  0  0  0
    5.1982    4.9063    1.3801 O   0  0  0  0  0  0  0  0  0  0  0  0
    6.3180    5.3627    2.1751 C   0  0  0  0  0  0  0  0  0  0  0  0
    7.1109    6.2823    1.2402 C   0  0  0  0  0  0  0  0  0  0  0  0
    1.7304    1.1940    2.5707 H   0  0  0  0  0  0  0  0  0  0  0  0
   -0.6326    4.0404   -0.4458 H   0  0  0  0  0  0  0  0  0  0  0  0
   -2.9365    3.2342   -0.3936 H   0  0  0  0  0  0  0  0  0  0  0  0
   -3.4272    0.8831    0.1792 H   0  0  0  0  0  0  0  0  0  0  0  0
    3.8806   -1.1091    0.3614 H   0  0  0  0  0  0  0  0  0  0  0  0
    2.6518   -2.1392    1.1447 H   0  0  0  0  0  0  0  0  0  0  0  0
    4.7512   -1.3386    2.6389 H   0  0  0  0  0  0  0  0  0  0  0  0
    3.1182   -1.2048    3.3278 H   0  0  0  0  0  0  0  0  0  0  0  0
    3.9395    1.0563    3.5083 H   0  0  0  0  0  0  0  0  0  0  0  0
    4.7163    0.9420    1.9082 H   0  0  0  0  0  0  0  0  0  0  0  0
    1.4488    4.1600   -1.4558 H   0  0  0  0  0  0  0  0  0  0  0  0
    8.3924    6.8746    1.8162 C   0  0  0  0  0  0  0  0  0  0  0  0
    6.4606    7.0752    0.8477 H   0  0  0  0  0  0  0  0  0  0  0  0
    7.3825    5.6879    0.3563 H   0  0  0  0  0  0  0  0  0  0  0  0
    6.9438    4.5018    2.4419 H   0  0  0  0  0  0  0  0  0  0  0  0
    8.9388    6.1274    2.4022 H   0  0  0  0  0  0  0  0  0  0  0  0
    9.0397    7.1124    0.9609 H   0  0  0  0  0  0  0  0  0  0  0  0
    8.1836    8.1793    2.5903 C   0  0  0  0  0  0  0  0  0  0  0  0
    8.4277    8.0569    4.0913 C   0  0  0  0  0  0  0  0  0  0  0  0
    7.2361    7.5617    4.9053 C   0  0  0  0  0  0  0  0  0  0  0  0
    6.7745    6.1435    4.5824 C   0  0  0  0  0  0  0  0  0  0  0  0
    5.7728    6.0606    3.4271 C   0  0  0  0  0  0  0  0  0  0  0  0
    8.9202    8.8994    2.2097 H   0  0  0  0  0  0  0  0  0  0  0  0
    7.2028    8.6257    2.3915 H   0  0  0  0  0  0  0  0  0  0  0  0
    9.3042    7.4274    4.2865 H   0  0  0  0  0  0  0  0  0  0  0  0
    8.6835    9.0546    4.4715 H   0  0  0  0  0  0  0  0  0  0  0  0
    7.5387    7.5825    5.9607 H   0  0  0  0  0  0  0  0  0  0  0  0
    6.4013    8.2678    4.8196 H   0  0  0  0  0  0  0  0  0  0  0  0
    7.6316    5.4768    4.4352 H   0  0  0  0  0  0  0  0  0  0  0  0
    6.2597    5.7688    5.4777 H   0  0  0  0  0  0  0  0  0  0  0  0
    5.3647    7.0443    3.1648 H   0  0  0  0  0  0  0  0  0  0  0  0
    4.9046    5.4947    3.7909 H   0  0  0  0  0  0  0  0  0  0  0  0
  1  2  2  0  0  0  0
  1  7  1  0  0  0  0
  1  8  1  0  0  0  0
  2  3  1  0  0  0  0
  2 11  1  0  0  0  0
  3  4  1  0  0  0  0
  3 18  2  0  0  0  0
  4  5  1  0  0  0  0
  4 12  1  0  0  0  0
  5  6  1  0  0  0  0
  5 14  1  0  0  0  0
  5 25  1  1  0  0  0
  6  7  1  0  0  0  0
  6 15  2  0  0  0  0
  7 17  1  0  0  0  0
  8  9  2  0  0  0  0
  8 26  1  0  0  0  0
  9 10  1  0  0  0  0
  9 27  1  0  0  0  0
 10 11  2  0  0  0  0
 10 28  1  0  0  0  0
 11 19  1  0  0  0  0
 12 13  1  0  0  0  0
 12 29  1  0  0  0  0
 12 30  1  0  0  0  0
 13 14  1  0  0  0  0
 13 31  1  0  0  0  0
 13 32  1  0  0  0  0
 14 33  1  0  0  0  0
 14 34  1  0  0  0  0
 15 16  1  0  0  0  0
 15 20  1  0  0  0  0
 16 17  2  0  0  0  0
 17 35  1  0  0  0  0
 20 21  2  0  0  0  0
 20 22  1  0  0  0  0
 22 23  1  0  0  0  0
 23 24  1  0  0  0  0
 23 39  1  0  0  0  0
 23 46  1  0  0  0  0
 24 36  1  0  0  0  0
 24 37  1  0  0  0  0
 24 38  1  0  0  0  0
 36 40  1  0  0  0  0
 36 41  1  0  0  0  0
 42 36  1  0  0  0  0
 42 47  1  0  0  0  0
 42 48  1  0  0  0  0
 43 42  1  0  0  0  0
 43 49  1  0  0  0  0
 43 50  1  0  0  0  0
 44 43  1  0  0  0  0
 44 51  1  0  0  0  0
 44 52  1  0  0  0  0
 45 44  1  0  0  0  0
 45 53  1  0  0  0  0
 45 54  1  0  0  0  0
 46 45  1  0  0  0  0
 46 55  1  0  0  0  0
 46 56  1  0  0  0  0
M  END
