Flunitrazepam
 OpenBabel04201808233D
Structure written by MMmdl.
 35 37  0  0  0  0  0  0  0  0999 V2000
   -2.1357    2.4944   -0.1711 C   0  0  0  0  0  0  0  0  0  0  0  0
   -2.3558    1.1298    0.0096 C   0  0  0  0  0  0  0  0  0  0  0  0
   -1.2730    0.2632    0.1852 C   0  0  0  0  0  0  0  0  0  0  0  0
    0.0445    0.7668    0.1839 C   0  0  0  0  0  0  0  0  0  0  0  0
    0.2858    2.1530    0.0506 C   0  0  0  0  0  0  0  0  0  0  0  0
   -0.8275    2.9934   -0.1522 C   0  0  0  0  0  0  0  0  0  0  0  0
    1.1505   -0.2414    0.2480 C   0  0  0  0  0  0  0  0  0  0  0  0
    2.2017   -0.1366    0.9942 N   0  0  0  0  0  0  0  0  0  0  0  0
    2.3149    1.0745    1.8067 C   0  0  0  0  0  0  0  0  0  0  0  0
    2.6405    2.2432    0.8863 C   0  0  0  0  0  0  0  0  0  0  0  0
    1.5944    2.7398    0.1040 N   0  0  0  0  0  0  0  0  0  0  0  0
    1.0479   -1.4468   -0.6242 C   0  0  0  0  0  0  0  0  0  0  0  0
    3.7749    2.7380    0.8824 O   0  0  0  0  0  0  0  0  0  0  0  0
    1.4264   -2.7034   -0.1337 C   0  0  0  0  0  0  0  0  0  0  0  0
    1.3171   -3.8301   -0.9527 C   0  0  0  0  0  0  0  0  0  0  0  0
    0.8283   -3.7073   -2.2546 C   0  0  0  0  0  0  0  0  0  0  0  0
    0.4457   -2.4572   -2.7417 C   0  0  0  0  0  0  0  0  0  0  0  0
    0.5537   -1.3337   -1.9255 C   0  0  0  0  0  0  0  0  0  0  0  0
   -3.7265    0.6018    0.0055 N   0  3  0  0  0  0  0  0  0  0  0  0
   -3.8889   -0.6192    0.1896 O   0  0  0  0  0  0  0  0  0  0  0  0
   -4.6662    1.3976   -0.1811 O   0  5  0  0  0  0  0  0  0  0  0  0
    0.2029   -0.1413   -2.4309 F   0  0  0  0  0  0  0  0  0  0  0  0
    1.8335    3.9789   -0.6336 C   0  0  0  0  0  0  0  0  0  0  0  0
   -2.9606    3.1893   -0.3142 H   0  0  0  0  0  0  0  0  0  0  0  0
   -1.4471   -0.8024    0.3176 H   0  0  0  0  0  0  0  0  0  0  0  0
   -0.7107    4.0702   -0.2621 H   0  0  0  0  0  0  0  0  0  0  0  0
    3.1484    0.9481    2.5065 H   0  0  0  0  0  0  0  0  0  0  0  0
    1.4259    1.2736    2.4154 H   0  0  0  0  0  0  0  0  0  0  0  0
    1.7942   -2.8219    0.8832 H   0  0  0  0  0  0  0  0  0  0  0  0
    1.6102   -4.8079   -0.5730 H   0  0  0  0  0  0  0  0  0  0  0  0
    0.7449   -4.5876   -2.8899 H   0  0  0  0  0  0  0  0  0  0  0  0
    0.0673   -2.3542   -3.7552 H   0  0  0  0  0  0  0  0  0  0  0  0
    2.9013    4.1276   -0.8203 H   0  0  0  0  0  0  0  0  0  0  0  0
    1.4739    4.8235   -0.0376 H   0  0  0  0  0  0  0  0  0  0  0  0
    1.3282    3.9477   -1.6040 H   0  0  0  0  0  0  0  0  0  0  0  0
  1  2  2  0  0  0  0
  1  6  1  0  0  0  0
  1 24  1  0  0  0  0
  2  3  1  0  0  0  0
  2 19  1  0  0  0  0
  3  4  2  0  0  0  0
  3 25  1  0  0  0  0
  4  5  1  0  0  0  0
  4  7  1  0  0  0  0
  5  6  2  0  0  0  0
  5 11  1  0  0  0  0
  6 26  1  0  0  0  0
  7  8  2  0  0  0  0
  7 12  1  0  0  0  0
  8  9  1  0  0  0  0
  9 10  1  0  0  0  0
  9 27  1  0  0  0  0
  9 28  1  0  0  0  0
 10 11  1  0  0  0  0
 10 13  2  0  0  0  0
 11 23  1  0  0  0  0
 12 14  2  0  0  0  0
 12 18  1  0  0  0  0
 14 15  1  0  0  0  0
 14 29  1  0  0  0  0
 15 16  2  0  0  0  0
 15 30  1  0  0  0  0
 16 17  1  0  0  0  0
 16 31  1  0  0  0  0
 17 18  2  0  0  0  0
 17 32  1  0  0  0  0
 18 22  1  0  0  0  0
 19 20  2  0  0  0  0
 19 21  1  0  0  0  0
 23 33  1  0  0  0  0
 23 34  1  0  0  0  0
 23 35  1  0  0  0  0
M  CHG  2  19   1  21  -1
M  END
