Ro15-5623
 OpenBabel04201808233D
Structure written by MMmdl.
 36 38  0  0  0  0  0  0  0  0999 V2000
    0.1886    2.1674    0.0514 C   0  0  0  0  0  0  0  0  0  0  0  0
    0.0138    0.7841    0.2657 C   0  0  0  0  0  0  0  0  0  0  0  0
    1.1269   -0.1989    0.3841 C   0  0  0  0  0  0  0  0  0  0  0  0
    2.2066    0.0834    1.2084 N   0  0  0  0  0  0  0  0  0  0  0  0
    2.2992    1.2886    1.9960 C   0  0  0  0  0  0  0  0  0  0  0  0
    2.4656    2.4112    1.0522 C   0  0  0  0  0  0  0  0  0  0  0  0
    1.4533    2.7928    0.1957 N   0  0  0  0  0  0  0  0  0  0  0  0
   -0.9200    2.9660   -0.2926 C   0  0  0  0  0  0  0  0  0  0  0  0
   -2.1958    2.4058   -0.3817 C   0  0  0  0  0  0  0  0  0  0  0  0
   -2.3763    1.0502   -0.1319 C   0  0  0  0  0  0  0  0  0  0  0  0
   -1.2793    0.2504    0.1805 C   0  0  0  0  0  0  0  0  0  0  0  0
    3.5104    3.2991    0.8365 C   0  0  0  0  0  0  0  0  0  0  0  0
    3.1162    4.2577   -0.0799 N   0  0  0  0  0  0  0  0  0  0  0  0
    1.8904    3.9389   -0.4247 C   0  0  0  0  0  0  0  0  0  0  0  0
    1.0643   -1.2205   -0.2967 O   0  0  0  0  0  0  0  0  0  0  0  0
   -1.5077   -1.0509    0.4122 F   0  0  0  0  0  0  0  0  0  0  0  0
    4.8298    3.2847    1.4754 C   0  0  0  0  0  0  0  0  0  0  0  0
    5.1724    2.4447    2.3016 O   0  0  0  0  0  0  0  0  0  0  0  0
    5.6271    4.3070    1.0489 O   0  0  0  0  0  0  0  0  0  0  0  0
    1.3773    1.4066    2.5783 H   0  0  0  0  0  0  0  0  0  0  0  0
   -0.8284    4.0378   -0.4567 H   0  0  0  0  0  0  0  0  0  0  0  0
   -3.0506    3.0297   -0.6347 H   0  0  0  0  0  0  0  0  0  0  0  0
   -3.3634    0.5999   -0.1908 H   0  0  0  0  0  0  0  0  0  0  0  0
    1.2968    4.4832   -1.1473 H   0  0  0  0  0  0  0  0  0  0  0  0
    6.9301    4.3316    1.6384 C   0  0  0  0  0  0  0  0  0  0  0  0
    3.3541   -0.8097    1.2293 C   0  0  0  0  0  0  0  0  0  0  0  0
    3.1152    1.2026    2.7176 H   0  0  0  0  0  0  0  0  0  0  0  0
    4.2232   -0.2754    0.8338 H   0  0  0  0  0  0  0  0  0  0  0  0
    3.5486   -1.1102    2.2631 H   0  0  0  0  0  0  0  0  0  0  0  0
    3.1892   -1.7070    0.6278 H   0  0  0  0  0  0  0  0  0  0  0  0
    7.6910    5.5048    1.0525 C   0  0  0  0  0  0  0  0  0  0  0  0
    6.8426    4.4524    2.7239 H   0  0  0  0  0  0  0  0  0  0  0  0
    7.4580    3.3985    1.4120 H   0  0  0  0  0  0  0  0  0  0  0  0
    8.6967    5.5694    1.4769 H   0  0  0  0  0  0  0  0  0  0  0  0
    7.7718    5.4064   -0.0352 H   0  0  0  0  0  0  0  0  0  0  0  0
    7.1623    6.4437    1.2485 H   0  0  0  0  0  0  0  0  0  0  0  0
  1  2  2  0  0  0  0
  1  7  1  0  0  0  0
  1  8  1  0  0  0  0
  2  3  1  0  0  0  0
  2 11  1  0  0  0  0
  3  4  1  0  0  0  0
  3 15  2  0  0  0  0
  4  5  1  0  0  0  0
  4 26  1  0  0  0  0
  5  6  1  0  0  0  0
  5 20  1  0  0  0  0
  5 27  1  0  0  0  0
  6  7  1  0  0  0  0
  6 12  2  0  0  0  0
  7 14  1  0  0  0  0
  8  9  2  0  0  0  0
  8 21  1  0  0  0  0
  9 10  1  0  0  0  0
  9 22  1  0  0  0  0
 10 11  2  0  0  0  0
 10 23  1  0  0  0  0
 11 16  1  0  0  0  0
 12 13  1  0  0  0  0
 12 17  1  0  0  0  0
 13 14  2  0  0  0  0
 14 24  1  0  0  0  0
 17 18  2  0  0  0  0
 17 19  1  0  0  0  0
 19 25  1  0  0  0  0
 25 31  1  0  0  0  0
 25 32  1  0  0  0  0
 25 33  1  0  0  0  0
 26 28  1  0  0  0  0
 26 29  1  0  0  0  0
 26 30  1  0  0  0  0
 31 34  1  0  0  0  0
 31 35  1  0  0  0  0
 31 36  1  0  0  0  0
M  END
