Ro15-1788
 OpenBabel04201808233D
Structure written by MMmdl.
 36 38  0  0  0  0  0  0  0  0999 V2000
    0.1884    2.1771    0.0690 C   0  0  0  0  0  0  0  0  0  0  0  0
    0.0176    0.7859    0.2469 C   0  0  0  0  0  0  0  0  0  0  0  0
    1.1140   -0.2209    0.4089 C   0  0  0  0  0  0  0  0  0  0  0  0
    2.2439    0.0912    1.1454 N   0  0  0  0  0  0  0  0  0  0  0  0
    2.3395    1.2728    1.9658 C   0  0  0  0  0  0  0  0  0  0  0  0
    2.4774    2.4196    1.0520 C   0  0  0  0  0  0  0  0  0  0  0  0
    1.4477    2.8131    0.2243 N   0  0  0  0  0  0  0  0  0  0  0  0
   -0.9217    2.9771   -0.2728 C   0  0  0  0  0  0  0  0  0  0  0  0
   -2.1892    2.4091   -0.4051 C   0  0  0  0  0  0  0  0  0  0  0  0
   -2.3524    1.0468   -0.2094 C   0  0  0  0  0  0  0  0  0  0  0  0
   -1.2699    0.2367    0.1032 C   0  0  0  0  0  0  0  0  0  0  0  0
    3.5106    3.3227    0.8448 C   0  0  0  0  0  0  0  0  0  0  0  0
    3.0920    4.3043   -0.0346 N   0  0  0  0  0  0  0  0  0  0  0  0
    1.8646    3.9819   -0.3695 C   0  0  0  0  0  0  0  0  0  0  0  0
    0.9649   -1.3131   -0.1375 O   0  0  0  0  0  0  0  0  0  0  0  0
    4.8413    3.3033    1.4596 C   0  0  0  0  0  0  0  0  0  0  0  0
    5.2073    2.4452    2.2568 O   0  0  0  0  0  0  0  0  0  0  0  0
    5.6200    4.3447    1.0457 O   0  0  0  0  0  0  0  0  0  0  0  0
    1.4291    1.3650    2.5706 H   0  0  0  0  0  0  0  0  0  0  0  0
   -0.8392    4.0539   -0.4062 H   0  0  0  0  0  0  0  0  0  0  0  0
   -3.0504    3.0219   -0.6558 H   0  0  0  0  0  0  0  0  0  0  0  0
   -3.5691    0.5044   -0.3379 F   0  0  0  0  0  0  0  0  0  0  0  0
    1.2565    4.5401   -1.0688 H   0  0  0  0  0  0  0  0  0  0  0  0
    6.9293    4.3736    1.6191 C   0  0  0  0  0  0  0  0  0  0  0  0
    3.3441   -0.8569    1.2213 C   0  0  0  0  0  0  0  0  0  0  0  0
    3.1723    1.1769    2.6670 H   0  0  0  0  0  0  0  0  0  0  0  0
    4.2799   -0.3337    1.0024 H   0  0  0  0  0  0  0  0  0  0  0  0
    3.3824   -1.2697    2.2336 H   0  0  0  0  0  0  0  0  0  0  0  0
    3.2262   -1.6770    0.5088 H   0  0  0  0  0  0  0  0  0  0  0  0
    7.6717    5.5627    1.0415 C   0  0  0  0  0  0  0  0  0  0  0  0
    6.8525    4.4790    2.7070 H   0  0  0  0  0  0  0  0  0  0  0  0
    7.4646    3.4492    1.3739 H   0  0  0  0  0  0  0  0  0  0  0  0
    8.6786    5.6356    1.4615 H   0  0  0  0  0  0  0  0  0  0  0  0
    7.7487    5.4763   -0.0474 H   0  0  0  0  0  0  0  0  0  0  0  0
    7.1323    6.4927    1.2495 H   0  0  0  0  0  0  0  0  0  0  0  0
   -1.4344   -0.8341    0.2079 H   0  0  0  0  0  0  0  0  0  0  0  0
  1  2  2  0  0  0  0
  1  7  1  0  0  0  0
  1  8  1  0  0  0  0
  2  3  1  0  0  0  0
  2 11  1  0  0  0  0
  3  4  1  0  0  0  0
  3 15  2  0  0  0  0
  4  5  1  0  0  0  0
  4 25  1  0  0  0  0
  5  6  1  0  0  0  0
  5 19  1  0  0  0  0
  5 26  1  0  0  0  0
  6  7  1  0  0  0  0
  6 12  2  0  0  0  0
  7 14  1  0  0  0  0
  8  9  2  0  0  0  0
  8 20  1  0  0  0  0
  9 10  1  0  0  0  0
  9 21  1  0  0  0  0
 10 11  2  0  0  0  0
 10 22  1  0  0  0  0
 11 36  1  0  0  0  0
 12 13  1  0  0  0  0
 12 16  1  0  0  0  0
 13 14  2  0  0  0  0
 14 23  1  0  0  0  0
 16 17  2  0  0  0  0
 16 18  1  0  0  0  0
 18 24  1  0  0  0  0
 24 30  1  0  0  0  0
 24 31  1  0  0  0  0
 24 32  1  0  0  0  0
 25 27  1  0  0  0  0
 25 28  1  0  0  0  0
 25 29  1  0  0  0  0
 30 33  1  0  0  0  0
 30 34  1  0  0  0  0
 30 35  1  0  0  0  0
M  END
