Ro17-9741
 OpenBabel04201808233D
Structure written by MMmdl.
 34 37  0  0  0  0  0  0  0  0999 V2000
    0.2454    2.1128    0.0050 C   0  0  0  0  0  0  0  0  0  0  0  0
   -0.0149    0.7570    0.2769 C   0  0  0  0  0  0  0  0  0  0  0  0
    1.0560   -0.2612    0.3516 C   0  0  0  0  0  0  0  0  0  0  0  0
    2.0717   -0.0535    1.2315 N   0  0  0  0  0  0  0  0  0  0  0  0
    2.6278    1.1326    1.8431 C   0  0  2  0  0  0  0  0  0  0  0  0
    2.5808    2.3235    0.9240 C   0  0  0  0  0  0  0  0  0  0  0  0
    1.5431    2.6844    0.0883 N   0  0  0  0  0  0  0  0  0  0  0  0
   -0.8287    2.9743   -0.3045 C   0  0  0  0  0  0  0  0  0  0  0  0
   -2.1427    2.5099   -0.2989 C   0  0  0  0  0  0  0  0  0  0  0  0
   -2.4045    1.1844    0.0234 C   0  0  0  0  0  0  0  0  0  0  0  0
   -1.3516    0.3086    0.3064 C   0  0  0  0  0  0  0  0  0  0  0  0
    3.5044    3.3618    0.8648 C   0  0  0  0  0  0  0  0  0  0  0  0
    3.1209    4.2573   -0.1161 N   0  0  0  0  0  0  0  0  0  0  0  0
    1.9664    3.8240   -0.5591 C   0  0  0  0  0  0  0  0  0  0  0  0
    0.9947   -1.2559   -0.3649 O   0  0  0  0  0  0  0  0  0  0  0  0
   -1.8025   -1.3039    0.7550 Cl  0  0  0  0  0  0  0  0  0  0  0  0
    4.6928    3.5729    1.6992 C   0  0  0  0  0  0  0  0  0  0  0  0
    4.9235    2.9380    2.7230 O   0  0  0  0  0  0  0  0  0  0  0  0
    5.4971    4.5663    1.2195 O   0  0  0  0  0  0  0  0  0  0  0  0
    2.1882    1.3278    2.8276 H   0  0  0  0  0  0  0  0  0  0  0  0
   -0.6794    4.0340   -0.5044 H   0  0  0  0  0  0  0  0  0  0  0  0
   -2.9641    3.1883   -0.5197 H   0  0  0  0  0  0  0  0  0  0  0  0
   -3.4339    0.8332    0.0505 H   0  0  0  0  0  0  0  0  0  0  0  0
    1.3955    4.2997   -1.3460 H   0  0  0  0  0  0  0  0  0  0  0  0
    6.6584    4.8137    2.0086 C   0  0  0  0  0  0  0  0  0  0  0  0
    3.2248   -0.9008    1.4627 C   0  0  0  0  0  0  0  0  0  0  0  0
    3.9662    0.3599    1.8810 C   0  0  0  0  0  0  0  0  0  0  0  0
    3.6122   -1.3918    0.5666 H   0  0  0  0  0  0  0  0  0  0  0  0
    3.0553   -1.6321    2.2577 H   0  0  0  0  0  0  0  0  0  0  0  0
    6.3768    5.1387    3.0151 H   0  0  0  0  0  0  0  0  0  0  0  0
    7.2910    3.9214    2.0511 H   0  0  0  0  0  0  0  0  0  0  0  0
    7.2263    5.6182    1.5333 H   0  0  0  0  0  0  0  0  0  0  0  0
    4.7253    0.6648    1.1511 H   0  0  0  0  0  0  0  0  0  0  0  0
    4.4351    0.2977    2.8685 H   0  0  0  0  0  0  0  0  0  0  0  0
  1  2  2  0  0  0  0
  1  7  1  0  0  0  0
  1  8  1  0  0  0  0
  2  3  1  0  0  0  0
  2 11  1  0  0  0  0
  3  4  1  0  0  0  0
  3 15  2  0  0  0  0
  4  5  1  0  0  0  0
  4 26  1  0  0  0  0
  5  6  1  0  0  0  0
  5 20  1  1  0  0  0
  5 27  1  0  0  0  0
  6  7  1  0  0  0  0
  6 12  2  0  0  0  0
  7 14  1  0  0  0  0
  8  9  2  0  0  0  0
  8 21  1  0  0  0  0
  9 10  1  0  0  0  0
  9 22  1  0  0  0  0
 10 11  2  0  0  0  0
 10 23  1  0  0  0  0
 11 16  1  0  0  0  0
 12 13  1  0  0  0  0
 12 17  1  0  0  0  0
 13 14  2  0  0  0  0
 14 24  1  0  0  0  0
 17 18  2  0  0  0  0
 17 19  1  0  0  0  0
 19 25  1  0  0  0  0
 25 30  1  0  0  0  0
 25 31  1  0  0  0  0
 25 32  1  0  0  0  0
 26 28  1  0  0  0  0
 26 29  1  0  0  0  0
 27 26  1  0  0  0  0
 27 33  1  0  0  0  0
 27 34  1  0  0  0  0
M  END
