Ro16-0153
 OpenBabel04201808233D
Structure written by MMmdl.
 43 46  0  0  0  0  0  0  0  0999 V2000
    0.2434    2.1116   -0.0003 C   0  0  0  0  0  0  0  0  0  0  0  0
   -0.0174    0.7587    0.2874 C   0  0  0  0  0  0  0  0  0  0  0  0
    1.0532   -0.2599    0.3699 C   0  0  0  0  0  0  0  0  0  0  0  0
    2.0790   -0.0427    1.2346 N   0  0  0  0  0  0  0  0  0  0  0  0
    2.6251    1.1437    1.8528 C   0  0  2  0  0  0  0  0  0  0  0  0
    2.5699    2.3367    0.9383 C   0  0  0  0  0  0  0  0  0  0  0  0
    1.5387    2.6889    0.0918 N   0  0  0  0  0  0  0  0  0  0  0  0
   -0.8290    2.9654   -0.3350 C   0  0  0  0  0  0  0  0  0  0  0  0
   -2.1423    2.4983   -0.3387 C   0  0  0  0  0  0  0  0  0  0  0  0
   -2.4056    1.1785    0.0041 C   0  0  0  0  0  0  0  0  0  0  0  0
   -1.3542    0.3094    0.3136 C   0  0  0  0  0  0  0  0  0  0  0  0
    3.4851    3.3830    0.8921 C   0  0  0  0  0  0  0  0  0  0  0  0
    3.1094    4.2730   -0.0964 N   0  0  0  0  0  0  0  0  0  0  0  0
    1.9643    3.8290   -0.5546 C   0  0  0  0  0  0  0  0  0  0  0  0
    0.9866   -1.2633   -0.3344 O   0  0  0  0  0  0  0  0  0  0  0  0
   -1.8074   -1.2960    0.7849 Cl  0  0  0  0  0  0  0  0  0  0  0  0
    4.6591    3.6004    1.7471 C   0  0  0  0  0  0  0  0  0  0  0  0
    4.9990    2.8170    2.6252 O   0  0  0  0  0  0  0  0  0  0  0  0
    5.2968    4.7673    1.4556 O   0  0  0  0  0  0  0  0  0  0  0  0
    2.1846    1.3305    2.8382 H   0  0  0  0  0  0  0  0  0  0  0  0
   -0.6803    4.0224   -0.5510 H   0  0  0  0  0  0  0  0  0  0  0  0
   -2.9620    3.1706   -0.5838 H   0  0  0  0  0  0  0  0  0  0  0  0
   -3.4347    0.8256    0.0253 H   0  0  0  0  0  0  0  0  0  0  0  0
    1.4020    4.2972   -1.3519 H   0  0  0  0  0  0  0  0  0  0  0  0
    6.4825    5.1754    2.1813 C   0  0  0  0  0  0  0  0  0  0  0  0
    3.2413   -0.8803    1.4536 C   0  0  0  0  0  0  0  0  0  0  0  0
    3.9706    0.3826    1.8862 C   0  0  0  0  0  0  0  0  0  0  0  0
    3.6328   -1.3544    0.5502 H   0  0  0  0  0  0  0  0  0  0  0  0
    3.0830   -1.6236    2.2395 H   0  0  0  0  0  0  0  0  0  0  0  0
    6.1747    5.4104    3.6640 C   0  0  0  0  0  0  0  0  0  0  0  0
    7.6269    4.1747    1.9856 C   0  0  0  0  0  0  0  0  0  0  0  0
    6.8874    6.5138    1.5448 C   0  0  0  0  0  0  0  0  0  0  0  0
    4.7292    0.7024    1.1623 H   0  0  0  0  0  0  0  0  0  0  0  0
    4.4383    0.3156    2.8737 H   0  0  0  0  0  0  0  0  0  0  0  0
    5.2978    6.0573    3.7816 H   0  0  0  0  0  0  0  0  0  0  0  0
    5.9476    4.4769    4.1877 H   0  0  0  0  0  0  0  0  0  0  0  0
    7.0231    5.8753    4.1780 H   0  0  0  0  0  0  0  0  0  0  0  0
    7.7662    3.9467    0.9227 H   0  0  0  0  0  0  0  0  0  0  0  0
    8.5697    4.5633    2.3861 H   0  0  0  0  0  0  0  0  0  0  0  0
    7.4279    3.2228    2.4870 H   0  0  0  0  0  0  0  0  0  0  0  0
    7.0742    6.3937    0.4712 H   0  0  0  0  0  0  0  0  0  0  0  0
    6.0796    7.2490    1.6368 H   0  0  0  0  0  0  0  0  0  0  0  0
    7.7881    6.9298    2.0083 H   0  0  0  0  0  0  0  0  0  0  0  0
  1  2  2  0  0  0  0
  1  7  1  0  0  0  0
  1  8  1  0  0  0  0
  2  3  1  0  0  0  0
  2 11  1  0  0  0  0
  3  4  1  0  0  0  0
  3 15  2  0  0  0  0
  4  5  1  0  0  0  0
  4 26  1  0  0  0  0
  5  6  1  0  0  0  0
  5 20  1  1  0  0  0
  5 27  1  0  0  0  0
  6  7  1  0  0  0  0
  6 12  2  0  0  0  0
  7 14  1  0  0  0  0
  8  9  2  0  0  0  0
  8 21  1  0  0  0  0
  9 10  1  0  0  0  0
  9 22  1  0  0  0  0
 10 11  2  0  0  0  0
 10 23  1  0  0  0  0
 11 16  1  0  0  0  0
 12 13  1  0  0  0  0
 12 17  1  0  0  0  0
 13 14  2  0  0  0  0
 14 24  1  0  0  0  0
 17 18  2  0  0  0  0
 17 19  1  0  0  0  0
 19 25  1  0  0  0  0
 25 30  1  0  0  0  0
 25 31  1  0  0  0  0
 25 32  1  0  0  0  0
 26 28  1  0  0  0  0
 26 29  1  0  0  0  0
 27 26  1  0  0  0  0
 27 33  1  0  0  0  0
 27 34  1  0  0  0  0
 30 35  1  0  0  0  0
 30 36  1  0  0  0  0
 30 37  1  0  0  0  0
 31 38  1  0  0  0  0
 31 39  1  0  0  0  0
 31 40  1  0  0  0  0
 32 41  1  0  0  0  0
 32 42  1  0  0  0  0
 32 43  1  0  0  0  0
M  END
