Ro17-3211
 OpenBabel04201808233D
Structure written by MMmdl.
 47 51  0  0  0  0  0  0  0  0999 V2000
    0.2379    2.1159    0.0056 C   0  0  0  0  0  0  0  0  0  0  0  0
   -0.0138    0.7579    0.2741 C   0  0  0  0  0  0  0  0  0  0  0  0
    1.0663   -0.2494    0.3529 C   0  0  0  0  0  0  0  0  0  0  0  0
    2.0653   -0.0404    1.2522 N   0  0  0  0  0  0  0  0  0  0  0  0
    2.6055    1.1520    1.8675 C   0  0  2  0  0  0  0  0  0  0  0  0
    2.5632    2.3387    0.9430 C   0  0  0  0  0  0  0  0  0  0  0  0
    1.5319    2.6933    0.0974 N   0  0  0  0  0  0  0  0  0  0  0  0
   -0.8396    2.9695   -0.3118 C   0  0  0  0  0  0  0  0  0  0  0  0
   -2.1499    2.4940   -0.3167 C   0  0  0  0  0  0  0  0  0  0  0  0
   -2.4042    1.1660    0.0019 C   0  0  0  0  0  0  0  0  0  0  0  0
   -1.3465    0.2981    0.2929 C   0  0  0  0  0  0  0  0  0  0  0  0
    3.4890    3.3741    0.8813 C   0  0  0  0  0  0  0  0  0  0  0  0
    3.1135    4.2632   -0.1083 N   0  0  0  0  0  0  0  0  0  0  0  0
    1.9594    3.8295   -0.5530 C   0  0  0  0  0  0  0  0  0  0  0  0
    1.0264   -1.2356   -0.3767 O   0  0  0  0  0  0  0  0  0  0  0  0
   -1.7851   -1.3195    0.7329 Cl  0  0  0  0  0  0  0  0  0  0  0  0
    4.6736    3.5829    1.7208 C   0  0  0  0  0  0  0  0  0  0  0  0
    5.0202    2.8042    2.6024 O   0  0  0  0  0  0  0  0  0  0  0  0
    5.3325    4.7377    1.4120 O   0  0  0  0  0  0  0  0  0  0  0  0
    2.1512    1.3486    2.8448 H   0  0  0  0  0  0  0  0  0  0  0  0
   -0.6957    4.0303   -0.5107 H   0  0  0  0  0  0  0  0  0  0  0  0
   -2.9749    3.1658   -0.5445 H   0  0  0  0  0  0  0  0  0  0  0  0
   -3.4311    0.8061    0.0194 H   0  0  0  0  0  0  0  0  0  0  0  0
    1.3922    4.3003   -1.3456 H   0  0  0  0  0  0  0  0  0  0  0  0
    6.5213    5.0174    2.1699 C   0  0  0  0  0  0  0  0  0  0  0  0
    3.2297   -0.8729    1.4811 C   0  0  0  0  0  0  0  0  0  0  0  0
    3.9484    0.3892    1.9308 C   0  0  0  0  0  0  0  0  0  0  0  0
    3.6353   -1.3414    0.5809 H   0  0  0  0  0  0  0  0  0  0  0  0
    3.0633   -1.6214    2.2605 H   0  0  0  0  0  0  0  0  0  0  0  0
    6.3641    4.7582    3.2254 H   0  0  0  0  0  0  0  0  0  0  0  0
    4.7245    0.7064    1.2248 H   0  0  0  0  0  0  0  0  0  0  0  0
    4.3920    0.3216    2.9296 H   0  0  0  0  0  0  0  0  0  0  0  0
    6.7814    6.5238    2.0774 C   0  0  0  0  0  0  0  0  0  0  0  0
    8.0944    6.9145    2.7478 C   0  0  0  0  0  0  0  0  0  0  0  0
    9.2690    6.1166    2.1885 C   0  0  0  0  0  0  0  0  0  0  0  0
    9.0174    4.6138    2.2703 C   0  0  0  0  0  0  0  0  0  0  0  0
    7.7039    4.2285    1.5976 C   0  0  0  0  0  0  0  0  0  0  0  0
    6.7929    6.8349    1.0241 H   0  0  0  0  0  0  0  0  0  0  0  0
    5.9488    7.0700    2.5371 H   0  0  0  0  0  0  0  0  0  0  0  0
    8.2770    7.9856    2.6079 H   0  0  0  0  0  0  0  0  0  0  0  0
    8.0169    6.7417    3.8282 H   0  0  0  0  0  0  0  0  0  0  0  0
    9.4371    6.4007    1.1423 H   0  0  0  0  0  0  0  0  0  0  0  0
   10.1824    6.3687    2.7389 H   0  0  0  0  0  0  0  0  0  0  0  0
    9.8466    4.0754    1.7979 H   0  0  0  0  0  0  0  0  0  0  0  0
    8.9932    4.3041    3.3225 H   0  0  0  0  0  0  0  0  0  0  0  0
    7.5343    3.1519    1.7137 H   0  0  0  0  0  0  0  0  0  0  0  0
    7.7737    4.4007    0.5156 H   0  0  0  0  0  0  0  0  0  0  0  0
  1  2  2  0  0  0  0
  1  7  1  0  0  0  0
  1  8  1  0  0  0  0
  2  3  1  0  0  0  0
  2 11  1  0  0  0  0
  3  4  1  0  0  0  0
  3 15  2  0  0  0  0
  4  5  1  0  0  0  0
  4 26  1  0  0  0  0
  5  6  1  0  0  0  0
  5 20  1  1  0  0  0
  5 27  1  0  0  0  0
  6  7  1  0  0  0  0
  6 12  2  0  0  0  0
  7 14  1  0  0  0  0
  8  9  2  0  0  0  0
  8 21  1  0  0  0  0
  9 10  1  0  0  0  0
  9 22  1  0  0  0  0
 10 11  2  0  0  0  0
 10 23  1  0  0  0  0
 11 16  1  0  0  0  0
 12 13  1  0  0  0  0
 12 17  1  0  0  0  0
 13 14  2  0  0  0  0
 14 24  1  0  0  0  0
 17 18  2  0  0  0  0
 17 19  1  0  0  0  0
 19 25  1  0  0  0  0
 25 30  1  0  0  0  0
 25 37  1  0  0  0  0
 26 28  1  0  0  0  0
 26 29  1  0  0  0  0
 27 26  1  0  0  0  0
 27 31  1  0  0  0  0
 27 32  1  0  0  0  0
 33 25  1  0  0  0  0
 33 38  1  0  0  0  0
 33 39  1  0  0  0  0
 34 33  1  0  0  0  0
 34 40  1  0  0  0  0
 34 41  1  0  0  0  0
 35 34  1  0  0  0  0
 35 42  1  0  0  0  0
 35 43  1  0  0  0  0
 36 35  1  0  0  0  0
 36 44  1  0  0  0  0
 36 45  1  0  0  0  0
 37 36  1  0  0  0  0
 37 46  1  0  0  0  0
 37 47  1  0  0  0  0
M  END
