Ro17-2620
 OpenBabel04201808233D
Structure written by MMmdl.
 43 46  0  0  0  0  0  0  0  0999 V2000
    0.2223    2.1200    0.0960 C   0  0  0  0  0  0  0  0  0  0  0  0
   -0.0449    0.7378    0.1872 C   0  0  0  0  0  0  0  0  0  0  0  0
    0.9726   -0.3389    0.3383 C   0  0  0  0  0  0  0  0  0  0  0  0
    2.0610   -0.1066    1.1107 N   0  0  0  0  0  0  0  0  0  0  0  0
    2.4920    0.9888    1.9468 C   0  0  2  0  0  0  0  0  0  0  0  0
    2.5117    2.2641    1.1629 C   0  0  0  0  0  0  0  0  0  0  0  0
    1.5011    2.6988    0.3254 N   0  0  0  0  0  0  0  0  0  0  0  0
   -0.8352    2.9939   -0.2409 C   0  0  0  0  0  0  0  0  0  0  0  0
   -2.1289    2.5125   -0.4577 C   0  0  0  0  0  0  0  0  0  0  0  0
   -2.3813    1.1583   -0.3464 C   0  0  0  0  0  0  0  0  0  0  0  0
   -1.3591    0.2736   -0.0354 C   0  0  0  0  0  0  0  0  0  0  0  0
    3.4740    3.2668    1.1732 C   0  0  0  0  0  0  0  0  0  0  0  0
    3.1284    4.2417    0.2523 N   0  0  0  0  0  0  0  0  0  0  0  0
    1.9594    3.8802   -0.2192 C   0  0  0  0  0  0  0  0  0  0  0  0
    3.1547   -0.9931    1.4461 C   0  0  0  0  0  0  0  0  0  0  0  0
    3.8209    0.2205    2.0880 C   0  0  0  0  0  0  0  0  0  0  0  0
    0.8009   -1.4216   -0.2308 O   0  0  0  0  0  0  0  0  0  0  0  0
    4.7164    3.3879    1.9472 C   0  0  0  0  0  0  0  0  0  0  0  0
    5.0517    2.5426    2.7703 O   0  0  0  0  0  0  0  0  0  0  0  0
    5.4501    4.4940    1.6227 O   0  0  0  0  0  0  0  0  0  0  0  0
    6.7053    4.7638    2.3056 C   0  0  0  0  0  0  0  0  0  0  0  0
    6.4566    5.0792    3.7828 C   0  0  0  0  0  0  0  0  0  0  0  0
    7.2740    6.0254    1.6341 C   0  0  0  0  0  0  0  0  0  0  0  0
    7.7302    3.6389    2.1184 C   0  0  0  0  0  0  0  0  0  0  0  0
   -3.6192    0.6925   -0.5570 F   0  0  0  0  0  0  0  0  0  0  0  0
    1.9111    1.0558    2.8727 H   0  0  0  0  0  0  0  0  0  0  0  0
   -0.6912    4.0705   -0.3046 H   0  0  0  0  0  0  0  0  0  0  0  0
   -2.9309    3.2004   -0.7045 H   0  0  0  0  0  0  0  0  0  0  0  0
   -1.5921   -0.7899    0.0133 H   0  0  0  0  0  0  0  0  0  0  0  0
    1.4056    4.4221   -0.9762 H   0  0  0  0  0  0  0  0  0  0  0  0
    3.6749   -1.3977    0.5731 H   0  0  0  0  0  0  0  0  0  0  0  0
    2.8591   -1.7936    2.1294 H   0  0  0  0  0  0  0  0  0  0  0  0
    4.1478    0.0592    3.1194 H   0  0  0  0  0  0  0  0  0  0  0  0
    4.6668    0.5972    1.5037 H   0  0  0  0  0  0  0  0  0  0  0  0
    7.3667    5.4467    4.2674 H   0  0  0  0  0  0  0  0  0  0  0  0
    6.1178    4.1969    4.3317 H   0  0  0  0  0  0  0  0  0  0  0  0
    5.6694    5.8355    3.8897 H   0  0  0  0  0  0  0  0  0  0  0  0
    8.2635    6.2748    2.0316 H   0  0  0  0  0  0  0  0  0  0  0  0
    6.6132    6.8878    1.7865 H   0  0  0  0  0  0  0  0  0  0  0  0
    7.3667    5.8819    0.5517 H   0  0  0  0  0  0  0  0  0  0  0  0
    8.6962    3.9039    2.5599 H   0  0  0  0  0  0  0  0  0  0  0  0
    7.8829    3.4261    1.0526 H   0  0  0  0  0  0  0  0  0  0  0  0
    7.4092    2.7076    2.5898 H   0  0  0  0  0  0  0  0  0  0  0  0
  1  2  2  0  0  0  0
  1  7  1  0  0  0  0
  1  8  1  0  0  0  0
  2  3  1  0  0  0  0
  2 11  1  0  0  0  0
  3  4  1  0  0  0  0
  3 17  2  0  0  0  0
  4  5  1  0  0  0  0
  4 15  1  0  0  0  0
  5  6  1  0  0  0  0
  5 16  1  0  0  0  0
  5 26  1  1  0  0  0
  6  7  1  0  0  0  0
  6 12  2  0  0  0  0
  7 14  1  0  0  0  0
  8  9  2  0  0  0  0
  8 27  1  0  0  0  0
  9 10  1  0  0  0  0
  9 28  1  0  0  0  0
 10 11  2  0  0  0  0
 10 25  1  0  0  0  0
 11 29  1  0  0  0  0
 12 13  1  0  0  0  0
 12 18  1  0  0  0  0
 13 14  2  0  0  0  0
 14 30  1  0  0  0  0
 15 16  1  0  0  0  0
 15 31  1  0  0  0  0
 15 32  1  0  0  0  0
 16 33  1  0  0  0  0
 16 34  1  0  0  0  0
 18 19  2  0  0  0  0
 18 20  1  0  0  0  0
 20 21  1  0  0  0  0
 21 22  1  0  0  0  0
 21 23  1  0  0  0  0
 21 24  1  0  0  0  0
 22 35  1  0  0  0  0
 22 36  1  0  0  0  0
 22 37  1  0  0  0  0
 23 38  1  0  0  0  0
 23 39  1  0  0  0  0
 23 40  1  0  0  0  0
 24 41  1  0  0  0  0
 24 42  1  0  0  0  0
 24 43  1  0  0  0  0
M  END
