Ro16-9905
 OpenBabel04201808233D
Structure written by MMmdl.
 43 46  0  0  0  0  0  0  0  0999 V2000
    0.2444    2.1121    0.0059 C   0  0  0  0  0  0  0  0  0  0  0  0
   -0.0166    0.7581    0.2851 C   0  0  0  0  0  0  0  0  0  0  0  0
    1.0599   -0.2546    0.3523 C   0  0  0  0  0  0  0  0  0  0  0  0
    2.0628   -0.0586    1.2508 N   0  0  0  0  0  0  0  0  0  0  0  0
    2.6341    1.1320    1.8433 C   0  0  2  0  0  0  0  0  0  0  0  0
    2.5828    2.3200    0.9204 C   0  0  0  0  0  0  0  0  0  0  0  0
    1.5436    2.6814    0.0864 N   0  0  0  0  0  0  0  0  0  0  0  0
   -0.8288    2.9722   -0.3096 C   0  0  0  0  0  0  0  0  0  0  0  0
   -2.1430    2.5077   -0.3050 C   0  0  0  0  0  0  0  0  0  0  0  0
   -2.4075    1.1858    0.0289 C   0  0  0  0  0  0  0  0  0  0  0  0
   -1.3548    0.3118    0.3209 C   0  0  0  0  0  0  0  0  0  0  0  0
    3.5063    3.3588    0.8616 C   0  0  0  0  0  0  0  0  0  0  0  0
    3.1230    4.2538   -0.1199 N   0  0  0  0  0  0  0  0  0  0  0  0
    1.9677    3.8208   -0.5614 C   0  0  0  0  0  0  0  0  0  0  0  0
    1.0107   -1.2362   -0.3830 O   0  0  0  0  0  0  0  0  0  0  0  0
   -1.8590   -1.4544    0.8327 Br  0  0  0  0  0  0  0  0  0  0  0  0
    4.6922    3.5724    1.7020 C   0  0  0  0  0  0  0  0  0  0  0  0
    5.0434    2.7881    2.5749 O   0  0  0  0  0  0  0  0  0  0  0  0
    5.3234    4.7429    1.4077 O   0  0  0  0  0  0  0  0  0  0  0  0
    2.2137    1.3366    2.8342 H   0  0  0  0  0  0  0  0  0  0  0  0
   -0.6798    4.0307   -0.5155 H   0  0  0  0  0  0  0  0  0  0  0  0
   -2.9632    3.1844   -0.5359 H   0  0  0  0  0  0  0  0  0  0  0  0
   -3.4392    0.8406    0.0560 H   0  0  0  0  0  0  0  0  0  0  0  0
    1.3960    4.2970   -1.3474 H   0  0  0  0  0  0  0  0  0  0  0  0
    6.4973    5.1710    2.1412 C   0  0  0  0  0  0  0  0  0  0  0  0
    3.2216   -0.9042    1.4641 C   0  0  0  0  0  0  0  0  0  0  0  0
    3.9711    0.3564    1.8654 C   0  0  0  0  0  0  0  0  0  0  0  0
    3.5952   -1.3989    0.5640 H   0  0  0  0  0  0  0  0  0  0  0  0
    3.0669   -1.6331    2.2642 H   0  0  0  0  0  0  0  0  0  0  0  0
    6.1705    5.4127    3.6189 C   0  0  0  0  0  0  0  0  0  0  0  0
    7.6575    4.1857    1.9635 C   0  0  0  0  0  0  0  0  0  0  0  0
    6.8899    6.5113    1.5010 C   0  0  0  0  0  0  0  0  0  0  0  0
    4.7204    0.6576    1.1240 H   0  0  0  0  0  0  0  0  0  0  0  0
    4.4545    0.2966    2.8458 H   0  0  0  0  0  0  0  0  0  0  0  0
    5.2855    6.0508    3.7220 H   0  0  0  0  0  0  0  0  0  0  0  0
    5.9473    4.4805    4.1462 H   0  0  0  0  0  0  0  0  0  0  0  0
    7.0075    5.8912    4.1390 H   0  0  0  0  0  0  0  0  0  0  0  0
    7.8154    3.9592    0.9031 H   0  0  0  0  0  0  0  0  0  0  0  0
    8.5889    4.5876    2.3769 H   0  0  0  0  0  0  0  0  0  0  0  0
    7.4638    3.2315    2.4624 H   0  0  0  0  0  0  0  0  0  0  0  0
    7.1008    6.3858    0.4325 H   0  0  0  0  0  0  0  0  0  0  0  0
    6.0667    7.2320    1.5704 H   0  0  0  0  0  0  0  0  0  0  0  0
    7.7733    6.9480    1.9786 H   0  0  0  0  0  0  0  0  0  0  0  0
  1  2  2  0  0  0  0
  1  7  1  0  0  0  0
  1  8  1  0  0  0  0
  2  3  1  0  0  0  0
  2 11  1  0  0  0  0
  3  4  1  0  0  0  0
  3 15  2  0  0  0  0
  4  5  1  0  0  0  0
  4 26  1  0  0  0  0
  5  6  1  0  0  0  0
  5 20  1  1  0  0  0
  5 27  1  0  0  0  0
  6  7  1  0  0  0  0
  6 12  2  0  0  0  0
  7 14  1  0  0  0  0
  8  9  2  0  0  0  0
  8 21  1  0  0  0  0
  9 10  1  0  0  0  0
  9 22  1  0  0  0  0
 10 11  2  0  0  0  0
 10 23  1  0  0  0  0
 11 16  1  0  0  0  0
 12 13  1  0  0  0  0
 12 17  1  0  0  0  0
 13 14  2  0  0  0  0
 14 24  1  0  0  0  0
 17 18  2  0  0  0  0
 17 19  1  0  0  0  0
 19 25  1  0  0  0  0
 25 30  1  0  0  0  0
 25 31  1  0  0  0  0
 25 32  1  0  0  0  0
 26 28  1  0  0  0  0
 26 29  1  0  0  0  0
 27 26  1  0  0  0  0
 27 33  1  0  0  0  0
 27 34  1  0  0  0  0
 30 35  1  0  0  0  0
 30 36  1  0  0  0  0
 30 37  1  0  0  0  0
 31 38  1  0  0  0  0
 31 39  1  0  0  0  0
 31 40  1  0  0  0  0
 32 41  1  0  0  0  0
 32 42  1  0  0  0  0
 32 43  1  0  0  0  0
M  END
