Ro14-7462
 OpenBabel04201808233D
Structure written by MMmdl.
 43 46  0  0  0  0  0  0  0  0999 V2000
    0.2387    2.1599    0.1031 C   0  0  0  0  0  0  0  0  0  0  0  0
    0.0458    0.7820    0.1851 C   0  0  0  0  0  0  0  0  0  0  0  0
    1.1250   -0.2361    0.2034 C   0  0  0  0  0  0  0  0  0  0  0  0
    2.2789   -0.0783    0.9931 N   0  0  0  0  0  0  0  0  0  0  0  0
    2.4723    1.0980    1.8645 C   0  0  2  0  0  0  0  0  0  0  0  0
    2.5895    2.3251    0.9783 C   0  0  0  0  0  0  0  0  0  0  0  0
    1.5240    2.7313    0.1817 N   0  0  0  0  0  0  0  0  0  0  0  0
   -0.8678    3.0142   -0.0817 C   0  0  0  0  0  0  0  0  0  0  0  0
   -2.1613    2.4970   -0.1562 C   0  0  0  0  0  0  0  0  0  0  0  0
   -2.3628    1.1263   -0.0628 C   0  0  0  0  0  0  0  0  0  0  0  0
   -1.2674    0.2774    0.0974 C   0  0  0  0  0  0  0  0  0  0  0  0
    3.5606    3.3211    0.7732 C   0  0  0  0  0  0  0  0  0  0  0  0
    3.1279    4.2228   -0.1865 N   0  0  0  0  0  0  0  0  0  0  0  0
    1.9178    3.8528   -0.4997 C   0  0  0  0  0  0  0  0  0  0  0  0
    0.9142   -1.2680   -0.4388 O   0  0  0  0  0  0  0  0  0  0  0  0
   -1.4385   -0.7987    0.1294 H   0  0  0  0  0  0  0  0  0  0  0  0
    4.8536    3.5677    1.4252 C   0  0  0  0  0  0  0  0  0  0  0  0
    5.3460    2.8476    2.2866 O   0  0  0  0  0  0  0  0  0  0  0  0
    5.4213    4.7358    0.9976 O   0  0  0  0  0  0  0  0  0  0  0  0
    1.5656    1.1882    2.4790 H   0  0  0  0  0  0  0  0  0  0  0  0
   -0.7529    4.0956   -0.1332 H   0  0  0  0  0  0  0  0  0  0  0  0
   -3.0103    3.1640   -0.2878 H   0  0  0  0  0  0  0  0  0  0  0  0
   -3.3660    0.7124   -0.1324 H   0  0  0  0  0  0  0  0  0  0  0  0
    1.2936    4.3470   -1.2330 H   0  0  0  0  0  0  0  0  0  0  0  0
    6.6394    5.0858    1.6599 C   0  0  0  0  0  0  0  0  0  0  0  0
    2.8093   -1.3904    1.3950 C   0  0  0  0  0  0  0  0  0  0  0  0
    3.6574    0.9556    2.8307 C   0  0  0  0  0  0  0  0  0  0  0  0
    3.0588   -1.9584    0.4901 H   0  0  0  0  0  0  0  0  0  0  0  0
    1.9860   -1.9281    1.8867 H   0  0  0  0  0  0  0  0  0  0  0  0
    6.4663    5.1681    2.7390 H   0  0  0  0  0  0  0  0  0  0  0  0
    7.3991    4.3209    1.4647 H   0  0  0  0  0  0  0  0  0  0  0  0
    7.1055    6.4221    1.1151 C   0  0  0  0  0  0  0  0  0  0  0  0
    4.5990    1.1167    2.2949 H   0  0  0  0  0  0  0  0  0  0  0  0
    3.5811    1.7086    3.6231 H   0  0  0  0  0  0  0  0  0  0  0  0
    8.0388    6.7336    1.5922 H   0  0  0  0  0  0  0  0  0  0  0  0
    7.2629    6.3648    0.0330 H   0  0  0  0  0  0  0  0  0  0  0  0
    6.3468    7.1930    1.2854 H   0  0  0  0  0  0  0  0  0  0  0  0
    3.7710   -0.4196    3.4588 C   0  0  0  0  0  0  0  0  0  0  0  0
    4.0020   -1.4007    2.3293 C   0  0  0  0  0  0  0  0  0  0  0  0
    4.6167   -0.4448    4.1549 H   0  0  0  0  0  0  0  0  0  0  0  0
    2.8660   -0.6683    4.0247 H   0  0  0  0  0  0  0  0  0  0  0  0
    4.1546   -2.4105    2.7266 H   0  0  0  0  0  0  0  0  0  0  0  0
    4.9114   -1.1363    1.7761 H   0  0  0  0  0  0  0  0  0  0  0  0
  1  2  2  0  0  0  0
  1  7  1  0  0  0  0
  1  8  1  0  0  0  0
  2  3  1  0  0  0  0
  2 11  1  0  0  0  0
  3  4  1  0  0  0  0
  3 15  2  0  0  0  0
  4  5  1  0  0  0  0
  4 26  1  0  0  0  0
  5  6  1  0  0  0  0
  5 20  1  1  0  0  0
  5 27  1  0  0  0  0
  6  7  1  0  0  0  0
  6 12  2  0  0  0  0
  7 14  1  0  0  0  0
  8  9  2  0  0  0  0
  8 21  1  0  0  0  0
  9 10  1  0  0  0  0
  9 22  1  0  0  0  0
 10 11  2  0  0  0  0
 10 23  1  0  0  0  0
 11 16  1  0  0  0  0
 12 13  1  0  0  0  0
 12 17  1  0  0  0  0
 13 14  2  0  0  0  0
 14 24  1  0  0  0  0
 17 18  2  0  0  0  0
 17 19  1  0  0  0  0
 19 25  1  0  0  0  0
 25 30  1  0  0  0  0
 25 31  1  0  0  0  0
 25 32  1  0  0  0  0
 26 28  1  0  0  0  0
 26 29  1  0  0  0  0
 26 39  1  0  0  0  0
 27 33  1  0  0  0  0
 27 34  1  0  0  0  0
 32 35  1  0  0  0  0
 32 36  1  0  0  0  0
 32 37  1  0  0  0  0
 38 27  1  0  0  0  0
 38 40  1  0  0  0  0
 38 41  1  0  0  0  0
 39 38  1  0  0  0  0
 39 42  1  0  0  0  0
 39 43  1  0  0  0  0
M  END
