CL218-872
 OpenBabel04201808233D
Structure written by MMmdl.
 29 31  0  0  0  0  0  0  0  0999 V2000
   -0.5090    2.2630   -0.8250 C   0  0  0  0  0  0  0  0  0  0  0  0
   -0.4029    0.8574   -0.3186 C   0  0  0  0  0  0  0  0  0  0  0  0
    0.7183    0.2666   -0.0100 N   0  0  0  0  0  0  0  0  0  0  0  0
    1.8152    1.0709   -0.1630 N   0  0  0  0  0  0  0  0  0  0  0  0
    1.8480    2.3800   -0.5980 C   0  0  0  0  0  0  0  0  0  0  0  0
    0.6195    2.9758   -0.9440 C   0  0  0  0  0  0  0  0  0  0  0  0
    3.1290    0.7481    0.0897 C   0  0  0  0  0  0  0  0  0  0  0  0
    3.8995    1.7898   -0.1726 N   0  0  0  0  0  0  0  0  0  0  0  0
    3.0919    2.8168   -0.6062 N   0  0  0  0  0  0  0  0  0  0  0  0
   -1.6791    0.0937   -0.1879 C   0  0  0  0  0  0  0  0  0  0  0  0
   -2.8686    0.7089    0.2179 C   0  0  0  0  0  0  0  0  0  0  0  0
   -4.0373   -0.0440    0.3466 C   0  0  0  0  0  0  0  0  0  0  0  0
   -4.0241   -1.4137    0.0766 C   0  0  0  0  0  0  0  0  0  0  0  0
   -2.8413   -2.0500   -0.3274 C   0  0  0  0  0  0  0  0  0  0  0  0
   -1.6677   -1.2858   -0.4447 C   0  0  0  0  0  0  0  0  0  0  0  0
    3.5487   -0.5819    0.5815 C   0  0  0  0  0  0  0  0  0  0  0  0
   -2.8156   -3.5342   -0.5903 C   0  0  0  0  0  0  0  0  0  0  0  0
   -2.4572   -4.2601    0.5116 F   0  0  0  0  0  0  0  0  0  0  0  0
   -1.9334   -3.8988   -1.5704 F   0  0  0  0  0  0  0  0  0  0  0  0
   -4.0218   -4.0438   -0.9866 F   0  0  0  0  0  0  0  0  0  0  0  0
   -1.4680    2.6767   -1.1099 H   0  0  0  0  0  0  0  0  0  0  0  0
    0.6053    3.9950   -1.3133 H   0  0  0  0  0  0  0  0  0  0  0  0
   -2.9038    1.7680    0.4625 H   0  0  0  0  0  0  0  0  0  0  0  0
   -4.9601    0.4373    0.6672 H   0  0  0  0  0  0  0  0  0  0  0  0
   -4.9453   -1.9859    0.1888 H   0  0  0  0  0  0  0  0  0  0  0  0
   -0.7405   -1.7728   -0.7467 H   0  0  0  0  0  0  0  0  0  0  0  0
    4.6345   -0.6168    0.7135 H   0  0  0  0  0  0  0  0  0  0  0  0
    3.2688   -1.3647   -0.1304 H   0  0  0  0  0  0  0  0  0  0  0  0
    3.0830   -0.8033    1.5467 H   0  0  0  0  0  0  0  0  0  0  0  0
  1  2  1  0  0  0  0
  1  6  2  0  0  0  0
  1 21  1  0  0  0  0
  2  3  2  0  0  0  0
  2 10  1  0  0  0  0
  3  4  1  0  0  0  0
  4  5  1  0  0  0  0
  4  7  1  0  0  0  0
  5  6  1  0  0  0  0
  5  9  2  0  0  0  0
  6 22  1  0  0  0  0
  7  8  2  0  0  0  0
  7 16  1  0  0  0  0
  8  9  1  0  0  0  0
 10 11  2  0  0  0  0
 10 15  1  0  0  0  0
 11 12  1  0  0  0  0
 11 23  1  0  0  0  0
 12 13  2  0  0  0  0
 12 24  1  0  0  0  0
 13 14  1  0  0  0  0
 13 25  1  0  0  0  0
 14 15  2  0  0  0  0
 14 17  1  0  0  0  0
 15 26  1  0  0  0  0
 16 27  1  0  0  0  0
 16 28  1  0  0  0  0
 16 29  1  0  0  0  0
 17 18  1  0  0  0  0
 17 19  1  0  0  0  0
 17 20  1  0  0  0  0
M  END
