CGS9895
 OpenBabel04201808233D
Structure written by MMmdl.
 35 38  0  0  0  0  0  0  0  0999 V2000
   -1.6282   -2.7328   -0.8315 C   0  0  0  0  0  0  0  0  0  0  0  0
   -1.6963   -4.1403   -0.9489 C   0  0  0  0  0  0  0  0  0  0  0  0
   -0.5167   -4.9004   -1.0656 N   0  0  0  0  0  0  0  0  0  0  0  0
    0.7229   -4.3042   -1.0689 C   0  0  0  0  0  0  0  0  0  0  0  0
    0.8841   -2.9847   -0.9631 C   0  0  0  0  0  0  0  0  0  0  0  0
   -0.2937   -2.1246   -0.8380 C   0  0  0  0  0  0  0  0  0  0  0  0
   -2.7805   -1.9553   -0.7146 C   0  0  0  0  0  0  0  0  0  0  0  0
   -4.0249   -2.5849   -0.7140 C   0  0  0  0  0  0  0  0  0  0  0  0
   -4.1094   -3.9756   -0.8292 C   0  0  0  0  0  0  0  0  0  0  0  0
   -2.9508   -4.7512   -0.9462 C   0  0  0  0  0  0  0  0  0  0  0  0
    2.0478   -2.0939   -0.9379 C   0  0  0  0  0  0  0  0  0  0  0  0
    1.4389   -0.8237   -0.8028 N   0  0  0  0  0  0  0  0  0  0  0  0
    0.0303   -0.8617   -0.7443 N   0  0  0  0  0  0  0  0  0  0  0  0
    2.0763    0.4410   -0.7229 C   0  0  0  0  0  0  0  0  0  0  0  0
    3.4675    0.5764   -0.7724 C   0  0  0  0  0  0  0  0  0  0  0  0
    4.0710    1.8390   -0.6914 C   0  0  0  0  0  0  0  0  0  0  0  0
    3.3010    2.9944   -0.5594 C   0  0  0  0  0  0  0  0  0  0  0  0
    1.9155    2.8761   -0.5086 C   0  0  0  0  0  0  0  0  0  0  0  0
    1.3126    1.6119   -0.5897 C   0  0  0  0  0  0  0  0  0  0  0  0
    3.2124   -2.4463   -1.0190 O   0  0  0  0  0  0  0  0  0  0  0  0
    4.0136    4.1585   -0.4916 O   0  0  0  0  0  0  0  0  0  0  0  0
    3.2615    5.3638   -0.3568 C   0  0  0  0  0  0  0  0  0  0  0  0
   -0.5775   -5.9148   -1.1498 H   0  0  0  0  0  0  0  0  0  0  0  0
    1.5625   -4.9870   -1.1641 H   0  0  0  0  0  0  0  0  0  0  0  0
   -2.7180   -0.8736   -0.6248 H   0  0  0  0  0  0  0  0  0  0  0  0
   -4.9339   -1.9921   -0.6235 H   0  0  0  0  0  0  0  0  0  0  0  0
   -5.0851   -4.4598   -0.8279 H   0  0  0  0  0  0  0  0  0  0  0  0
   -3.0398   -5.8321   -1.0348 H   0  0  0  0  0  0  0  0  0  0  0  0
    4.1231   -0.2837   -0.8743 H   0  0  0  0  0  0  0  0  0  0  0  0
    5.1570    1.9110   -0.7329 H   0  0  0  0  0  0  0  0  0  0  0  0
    1.2655    3.7410   -0.4064 H   0  0  0  0  0  0  0  0  0  0  0  0
    0.2256    1.5635   -0.5460 H   0  0  0  0  0  0  0  0  0  0  0  0
    3.9712    6.1957   -0.3171 H   0  0  0  0  0  0  0  0  0  0  0  0
    2.6892    5.3678    0.5766 H   0  0  0  0  0  0  0  0  0  0  0  0
    2.6110    5.5203   -1.2235 H   0  0  0  0  0  0  0  0  0  0  0  0
  1  2  2  0  0  0  0
  1  6  1  0  0  0  0
  1  7  1  0  0  0  0
  2  3  1  0  0  0  0
  2 10  1  0  0  0  0
  3  4  1  0  0  0  0
  3 23  1  0  0  0  0
  4  5  2  0  0  0  0
  4 24  1  0  0  0  0
  5  6  1  0  0  0  0
  5 11  1  0  0  0  0
  6 13  2  0  0  0  0
  7  8  2  0  0  0  0
  7 25  1  0  0  0  0
  8  9  1  0  0  0  0
  8 26  1  0  0  0  0
  9 10  2  0  0  0  0
  9 27  1  0  0  0  0
 10 28  1  0  0  0  0
 11 12  1  0  0  0  0
 11 20  2  0  0  0  0
 12 13  1  0  0  0  0
 12 14  1  0  0  0  0
 14 15  2  0  0  0  0
 14 19  1  0  0  0  0
 15 16  1  0  0  0  0
 15 29  1  0  0  0  0
 16 17  2  0  0  0  0
 16 30  1  0  0  0  0
 17 18  1  0  0  0  0
 17 21  1  0  0  0  0
 18 19  2  0  0  0  0
 18 31  1  0  0  0  0
 19 32  1  0  0  0  0
 21 22  1  0  0  0  0
 22 33  1  0  0  0  0
 22 34  1  0  0  0  0
 22 35  1  0  0  0  0
M  END
