1-6c
 OpenBabel04201808233D
Structure written by MMmdl.
 44 48  0  0  0  0  0  0  0  0999 V2000
   -4.0447   -1.8025   -1.6763 C   0  0  0  0  0  0  0  0  0  0  0  0
   -3.7815   -3.1397   -1.9708 C   0  0  0  0  0  0  0  0  0  0  0  0
   -2.4629   -3.6052   -2.0559 C   0  0  0  0  0  0  0  0  0  0  0  0
   -1.3721   -2.7466   -1.8491 C   0  0  0  0  0  0  0  0  0  0  0  0
   -1.6627   -1.3873   -1.5492 C   0  0  0  0  0  0  0  0  0  0  0  0
   -2.9907   -0.9185   -1.4643 C   0  0  0  0  0  0  0  0  0  0  0  0
   -0.0420   -3.2297   -1.9392 C   0  0  0  0  0  0  0  0  0  0  0  0
    1.0611   -2.4609   -1.7358 N   0  3  0  0  0  0  0  0  0  0  0  0
    0.8020   -1.1150   -1.4598 C   0  0  0  0  0  0  0  0  0  0  0  0
   -0.5126   -0.5721   -1.3597 C   0  0  0  0  0  0  0  0  0  0  0  0
    2.3951   -3.0794   -1.8418 C   0  0  0  0  0  0  0  0  0  0  0  0
    1.7466   -0.0987   -1.2993 C   0  0  0  0  0  0  0  0  0  0  0  0
   -0.4270    0.7333   -1.0982 N   0  0  0  0  0  0  0  0  0  0  0  0
    0.9047    1.0250   -0.9652 N   0  0  0  0  0  0  0  0  0  0  0  0
    1.2317    2.3713   -0.5365 C   0  0  0  0  0  0  0  0  0  0  0  0
    2.5282    2.7674   -0.1792 C   0  0  0  0  0  0  0  0  0  0  0  0
    2.7888    4.0798    0.2407 C   0  0  0  0  0  0  0  0  0  0  0  0
    1.7563    5.0095    0.3121 C   0  0  0  0  0  0  0  0  0  0  0  0
    0.4608    4.6384   -0.0288 C   0  0  0  0  0  0  0  0  0  0  0  0
    0.1989    3.3280   -0.4465 C   0  0  0  0  0  0  0  0  0  0  0  0
    2.9829   -3.4809   -0.5015 C   0  0  0  0  0  0  0  0  0  0  0  0
    4.3607   -3.3139   -0.2783 C   0  0  0  0  0  0  0  0  0  0  0  0
    4.9488   -3.7170    0.9233 C   0  0  0  0  0  0  0  0  0  0  0  0
    4.1706   -4.3044    1.9171 C   0  0  0  0  0  0  0  0  0  0  0  0
    2.8069   -4.4941    1.7072 C   0  0  0  0  0  0  0  0  0  0  0  0
    2.2175   -4.0922    0.5048 C   0  0  0  0  0  0  0  0  0  0  0  0
    2.9618   -0.0046   -1.3920 O   0  5  0  0  0  0  0  0  0  0  0  0
    2.0823    6.6181    0.8283 Cl  0  0  0  0  0  0  0  0  0  0  0  0
   -5.0729   -1.4508   -1.6125 H   0  0  0  0  0  0  0  0  0  0  0  0
   -4.6083   -3.8296   -2.1364 H   0  0  0  0  0  0  0  0  0  0  0  0
   -2.3011   -4.6585   -2.2886 H   0  0  0  0  0  0  0  0  0  0  0  0
   -3.1945    0.1260   -1.2357 H   0  0  0  0  0  0  0  0  0  0  0  0
    0.1488   -4.2755   -2.1689 H   0  0  0  0  0  0  0  0  0  0  0  0
    3.0415   -2.3944   -2.3964 H   0  0  0  0  0  0  0  0  0  0  0  0
    2.3073   -3.9773   -2.4662 H   0  0  0  0  0  0  0  0  0  0  0  0
    3.3670    2.0782   -0.1945 H   0  0  0  0  0  0  0  0  0  0  0  0
    3.8041    4.3599    0.5137 H   0  0  0  0  0  0  0  0  0  0  0  0
   -0.3545    5.3562    0.0254 H   0  0  0  0  0  0  0  0  0  0  0  0
   -0.8287    3.0773   -0.7078 H   0  0  0  0  0  0  0  0  0  0  0  0
    4.9899   -2.8602   -1.0445 H   0  0  0  0  0  0  0  0  0  0  0  0
    6.0165   -3.5738    1.0806 H   0  0  0  0  0  0  0  0  0  0  0  0
    4.6276   -4.6197    2.8534 H   0  0  0  0  0  0  0  0  0  0  0  0
    2.1988   -4.9626    2.4795 H   0  0  0  0  0  0  0  0  0  0  0  0
    1.1529   -4.2734    0.3731 H   0  0  0  0  0  0  0  0  0  0  0  0
  1  2  2  0  0  0  0
  1  6  1  0  0  0  0
  1 29  1  0  0  0  0
  2  3  1  0  0  0  0
  2 30  1  0  0  0  0
  3  4  2  0  0  0  0
  3 31  1  0  0  0  0
  4  5  1  0  0  0  0
  4  7  1  0  0  0  0
  5  6  2  0  0  0  0
  5 10  1  0  0  0  0
  6 32  1  0  0  0  0
  7  8  2  0  0  0  0
  7 33  1  0  0  0  0
  8  9  1  0  0  0  0
  8 11  1  0  0  0  0
  9 10  1  0  0  0  0
  9 12  2  0  0  0  0
 10 13  2  0  0  0  0
 11 21  1  0  0  0  0
 11 34  1  0  0  0  0
 11 35  1  0  0  0  0
 12 14  1  0  0  0  0
 12 27  1  0  0  0  0
 13 14  1  0  0  0  0
 14 15  1  0  0  0  0
 15 16  2  0  0  0  0
 15 20  1  0  0  0  0
 16 17  1  0  0  0  0
 16 36  1  0  0  0  0
 17 18  2  0  0  0  0
 17 37  1  0  0  0  0
 18 19  1  0  0  0  0
 18 28  1  0  0  0  0
 19 20  2  0  0  0  0
 19 38  1  0  0  0  0
 20 39  1  0  0  0  0
 21 22  2  0  0  0  0
 21 26  1  0  0  0  0
 22 23  1  0  0  0  0
 22 40  1  0  0  0  0
 23 24  2  0  0  0  0
 23 41  1  0  0  0  0
 24 25  1  0  0  0  0
 24 42  1  0  0  0  0
 25 26  2  0  0  0  0
 25 43  1  0  0  0  0
 26 44  1  0  0  0  0
M  CHG  2   8   1  27  -1
M  END
