1-7c
 OpenBabel04201808233D
Structure written by MMmdl.
 31 34  0  0  0  0  0  0  0  0999 V2000
   -4.0718   -2.0238    0.5587 C   0  0  0  0  0  0  0  0  0  0  0  0
   -4.0347   -3.4178    0.6201 C   0  0  0  0  0  0  0  0  0  0  0  0
   -2.8151   -4.1017    0.5504 C   0  0  0  0  0  0  0  0  0  0  0  0
   -1.6035   -3.4034    0.4181 C   0  0  0  0  0  0  0  0  0  0  0  0
   -1.6590   -1.9876    0.3598 C   0  0  0  0  0  0  0  0  0  0  0  0
   -2.8888   -1.3003    0.4281 C   0  0  0  0  0  0  0  0  0  0  0  0
   -0.3461   -4.0614    0.3380 C   0  0  0  0  0  0  0  0  0  0  0  0
    0.9011   -3.5000    0.2051 N   0  0  0  0  0  0  0  0  0  0  0  0
    0.8235   -2.1453    0.1669 C   0  0  0  0  0  0  0  0  0  0  0  0
   -0.3808   -1.3646    0.2284 C   0  0  0  0  0  0  0  0  0  0  0  0
    1.8776   -1.2835    0.0042 C   0  0  0  0  0  0  0  0  0  0  0  0
    1.3070   -0.0104    0.1115 N   0  0  0  0  0  0  0  0  0  0  0  0
   -0.0647   -0.0610    0.1207 N   0  0  0  0  0  0  0  0  0  0  0  0
    1.9478    1.2625    0.2369 C   0  0  0  0  0  0  0  0  0  0  0  0
    3.2872    1.3795    0.6342 C   0  0  0  0  0  0  0  0  0  0  0  0
    3.8793    2.6430    0.7562 C   0  0  0  0  0  0  0  0  0  0  0  0
    3.1367    3.7919    0.4941 C   0  0  0  0  0  0  0  0  0  0  0  0
    1.7999    3.6916    0.1204 C   0  0  0  0  0  0  0  0  0  0  0  0
    1.2036    2.4319   -0.0008 C   0  0  0  0  0  0  0  0  0  0  0  0
    3.1676   -1.5527   -0.2301 O   0  0  0  0  0  0  0  0  0  0  0  0
    3.8706    5.3408    0.6475 Cl  0  0  0  0  0  0  0  0  0  0  0  0
   -5.0259   -1.5022    0.6131 H   0  0  0  0  0  0  0  0  0  0  0  0
   -4.9627   -3.9791    0.7224 H   0  0  0  0  0  0  0  0  0  0  0  0
   -2.8209   -5.1905    0.5995 H   0  0  0  0  0  0  0  0  0  0  0  0
   -2.9167   -0.2134    0.3808 H   0  0  0  0  0  0  0  0  0  0  0  0
   -0.3199   -5.1527    0.3803 H   0  0  0  0  0  0  0  0  0  0  0  0
    3.8907    0.5179    0.9076 H   0  0  0  0  0  0  0  0  0  0  0  0
    4.9184    2.7177    1.0701 H   0  0  0  0  0  0  0  0  0  0  0  0
    1.2113    4.5844   -0.0782 H   0  0  0  0  0  0  0  0  0  0  0  0
    0.1568    2.3842   -0.2988 H   0  0  0  0  0  0  0  0  0  0  0  0
    3.5674   -0.7950   -0.7082 H   0  0  0  0  0  0  0  0  0  0  0  0
  1  2  2  0  0  0  0
  1  6  1  0  0  0  0
  1 22  1  0  0  0  0
  2  3  1  0  0  0  0
  2 23  1  0  0  0  0
  3  4  2  0  0  0  0
  3 24  1  0  0  0  0
  4  5  1  0  0  0  0
  4  7  1  0  0  0  0
  5  6  2  0  0  0  0
  5 10  1  0  0  0  0
  6 25  1  0  0  0  0
  7  8  2  0  0  0  0
  7 26  1  0  0  0  0
  8  9  1  0  0  0  0
  9 10  1  0  0  0  0
  9 11  2  0  0  0  0
 10 13  2  0  0  0  0
 11 12  1  0  0  0  0
 11 20  1  0  0  0  0
 12 13  1  0  0  0  0
 12 14  1  0  0  0  0
 14 15  2  0  0  0  0
 14 19  1  0  0  0  0
 15 16  1  0  0  0  0
 15 27  1  0  0  0  0
 16 17  2  0  0  0  0
 16 28  1  0  0  0  0
 17 18  1  0  0  0  0
 17 21  1  0  0  0  0
 18 19  2  0  0  0  0
 18 29  1  0  0  0  0
 19 30  1  0  0  0  0
 20 31  1  0  0  0  0
M  END
