1-7d
 OpenBabel04201808233D
Structure written by MMmdl.
 31 34  0  0  0  0  0  0  0  0999 V2000
   -4.0722   -1.8518    0.5575 C   0  0  0  0  0  0  0  0  0  0  0  0
   -4.0346   -3.2458    0.6168 C   0  0  0  0  0  0  0  0  0  0  0  0
   -2.8147   -3.9292    0.5463 C   0  0  0  0  0  0  0  0  0  0  0  0
   -1.6033   -3.2303    0.4154 C   0  0  0  0  0  0  0  0  0  0  0  0
   -1.6593   -1.8144    0.3592 C   0  0  0  0  0  0  0  0  0  0  0  0
   -2.8894   -1.1277    0.4283 C   0  0  0  0  0  0  0  0  0  0  0  0
   -0.3457   -3.8878    0.3346 C   0  0  0  0  0  0  0  0  0  0  0  0
    0.9013   -3.3257    0.2026 N   0  0  0  0  0  0  0  0  0  0  0  0
    0.8233   -1.9710    0.1663 C   0  0  0  0  0  0  0  0  0  0  0  0
   -0.3813   -1.1907    0.2289 C   0  0  0  0  0  0  0  0  0  0  0  0
    1.8771   -1.1085    0.0049 C   0  0  0  0  0  0  0  0  0  0  0  0
    1.3060    0.1642    0.1140 N   0  0  0  0  0  0  0  0  0  0  0  0
   -0.0656    0.1131    0.1232 N   0  0  0  0  0  0  0  0  0  0  0  0
    1.9463    1.4374    0.2410 C   0  0  0  0  0  0  0  0  0  0  0  0
    3.2869    1.5539    0.6387 C   0  0  0  0  0  0  0  0  0  0  0  0
    3.8768    2.8169    0.7621 C   0  0  0  0  0  0  0  0  0  0  0  0
    3.1293    3.9587    0.5013 C   0  0  0  0  0  0  0  0  0  0  0  0
    1.7954    3.8656    0.1282 C   0  0  0  0  0  0  0  0  0  0  0  0
    1.1997    2.6073    0.0048 C   0  0  0  0  0  0  0  0  0  0  0  0
    3.1672   -1.3770   -0.2297 O   0  0  0  0  0  0  0  0  0  0  0  0
    3.6995    5.1646    0.6235 F   0  0  0  0  0  0  0  0  0  0  0  0
   -5.0265   -1.3307    0.6125 H   0  0  0  0  0  0  0  0  0  0  0  0
   -4.9624   -3.8077    0.7180 H   0  0  0  0  0  0  0  0  0  0  0  0
   -2.8201   -5.0181    0.5936 H   0  0  0  0  0  0  0  0  0  0  0  0
   -2.9178   -0.0407    0.3826 H   0  0  0  0  0  0  0  0  0  0  0  0
   -0.3191   -4.9791    0.3755 H   0  0  0  0  0  0  0  0  0  0  0  0
    3.8910    0.6922    0.9104 H   0  0  0  0  0  0  0  0  0  0  0  0
    4.9135    2.9104    1.0746 H   0  0  0  0  0  0  0  0  0  0  0  0
    1.2216    4.7678   -0.0646 H   0  0  0  0  0  0  0  0  0  0  0  0
    0.1530    2.5590   -0.2930 H   0  0  0  0  0  0  0  0  0  0  0  0
    3.5666   -0.6189   -0.7076 H   0  0  0  0  0  0  0  0  0  0  0  0
  1  2  2  0  0  0  0
  1  6  1  0  0  0  0
  1 22  1  0  0  0  0
  2  3  1  0  0  0  0
  2 23  1  0  0  0  0
  3  4  2  0  0  0  0
  3 24  1  0  0  0  0
  4  5  1  0  0  0  0
  4  7  1  0  0  0  0
  5  6  2  0  0  0  0
  5 10  1  0  0  0  0
  6 25  1  0  0  0  0
  7  8  2  0  0  0  0
  7 26  1  0  0  0  0
  8  9  1  0  0  0  0
  9 10  1  0  0  0  0
  9 11  2  0  0  0  0
 10 13  2  0  0  0  0
 11 12  1  0  0  0  0
 11 20  1  0  0  0  0
 12 13  1  0  0  0  0
 12 14  1  0  0  0  0
 14 15  2  0  0  0  0
 14 19  1  0  0  0  0
 15 16  1  0  0  0  0
 15 27  1  0  0  0  0
 16 17  2  0  0  0  0
 16 28  1  0  0  0  0
 17 18  1  0  0  0  0
 17 21  1  0  0  0  0
 18 19  2  0  0  0  0
 18 29  1  0  0  0  0
 19 30  1  0  0  0  0
 20 31  1  0  0  0  0
M  END
