1-9
 OpenBabel04201808233D
Structure written by MMmdl.
 30 33  0  0  0  0  0  0  0  0999 V2000
   -4.0638   -1.7114    0.0439 C   0  0  0  0  0  0  0  0  0  0  0  0
   -4.0638   -3.1071    0.0615 C   0  0  0  0  0  0  0  0  0  0  0  0
   -2.8585   -3.8194    0.0698 C   0  0  0  0  0  0  0  0  0  0  0  0
   -1.6247   -3.1481    0.0606 C   0  0  0  0  0  0  0  0  0  0  0  0
   -1.6424   -1.7304    0.0427 C   0  0  0  0  0  0  0  0  0  0  0  0
   -2.8577   -1.0146    0.0344 C   0  0  0  0  0  0  0  0  0  0  0  0
   -0.3806   -3.8343    0.0686 C   0  0  0  0  0  0  0  0  0  0  0  0
    0.8844   -3.2990    0.0612 N   0  0  0  0  0  0  0  0  0  0  0  0
    0.8406   -1.9418    0.0441 C   0  0  0  0  0  0  0  0  0  0  0  0
   -0.3437   -1.1361    0.0346 C   0  0  0  0  0  0  0  0  0  0  0  0
    1.9051   -1.0891    0.0333 C   0  0  0  0  0  0  0  0  0  0  0  0
    1.3891    0.1985    0.0168 N   0  0  0  0  0  0  0  0  0  0  0  0
    0.0052    0.1627    0.0184 N   0  0  0  0  0  0  0  0  0  0  0  0
    2.0083    1.4992   -0.0008 C   0  0  0  0  0  0  0  0  0  0  0  0
    3.3922    1.7048   -0.0086 C   0  0  0  0  0  0  0  0  0  0  0  0
    3.9253    3.0020   -0.0259 C   0  0  0  0  0  0  0  0  0  0  0  0
    3.0883    4.1129   -0.0358 C   0  0  0  0  0  0  0  0  0  0  0  0
    1.7114    3.9318   -0.0286 C   0  0  0  0  0  0  0  0  0  0  0  0
    1.1763    2.6395   -0.0113 C   0  0  0  0  0  0  0  0  0  0  0  0
    3.5559   -1.5133    0.0404 Cl  0  0  0  0  0  0  0  0  0  0  0  0
   -5.0070   -1.1676    0.0377 H   0  0  0  0  0  0  0  0  0  0  0  0
   -5.0096   -3.6475    0.0689 H   0  0  0  0  0  0  0  0  0  0  0  0
   -2.8930   -4.9086    0.0835 H   0  0  0  0  0  0  0  0  0  0  0  0
   -2.8571    0.0736    0.0207 H   0  0  0  0  0  0  0  0  0  0  0  0
   -0.3816   -4.9266    0.0823 H   0  0  0  0  0  0  0  0  0  0  0  0
    4.1170    0.9030   -0.0028 H   0  0  0  0  0  0  0  0  0  0  0  0
    5.0060    3.1400   -0.0317 H   0  0  0  0  0  0  0  0  0  0  0  0
    3.5096    5.1162   -0.0493 H   0  0  0  0  0  0  0  0  0  0  0  0
    1.0473    4.7945   -0.0364 H   0  0  0  0  0  0  0  0  0  0  0  0
    0.0902    2.5496   -0.0062 H   0  0  0  0  0  0  0  0  0  0  0  0
  1  2  2  0  0  0  0
  1  6  1  0  0  0  0
  1 21  1  0  0  0  0
  2  3  1  0  0  0  0
  2 22  1  0  0  0  0
  3  4  2  0  0  0  0
  3 23  1  0  0  0  0
  4  5  1  0  0  0  0
  4  7  1  0  0  0  0
  5  6  2  0  0  0  0
  5 10  1  0  0  0  0
  6 24  1  0  0  0  0
  7  8  2  0  0  0  0
  7 25  1  0  0  0  0
  8  9  1  0  0  0  0
  9 10  1  0  0  0  0
  9 11  2  0  0  0  0
 10 13  2  0  0  0  0
 11 12  1  0  0  0  0
 11 20  1  0  0  0  0
 12 13  1  0  0  0  0
 12 14  1  0  0  0  0
 14 15  2  0  0  0  0
 14 19  1  0  0  0  0
 15 16  1  0  0  0  0
 15 26  1  0  0  0  0
 16 17  2  0  0  0  0
 16 27  1  0  0  0  0
 17 18  1  0  0  0  0
 17 28  1  0  0  0  0
 18 19  2  0  0  0  0
 18 29  1  0  0  0  0
 19 30  1  0  0  0  0
M  END
