PK8165
 OpenBabel04201808233D
Structure written by MMmdl.
 48 51  0  0  0  0  0  0  0  0999 V2000
   -4.1785    0.2756   -2.4089 C   0  0  0  0  0  0  0  0  0  0  0  0
   -4.0780   -1.0924   -2.6044 C   0  0  0  0  0  0  0  0  0  0  0  0
   -2.8173   -1.6893   -2.6548 C   0  0  0  0  0  0  0  0  0  0  0  0
   -1.6469   -0.9543   -2.5161 C   0  0  0  0  0  0  0  0  0  0  0  0
   -1.7323    0.4440   -2.3232 C   0  0  0  0  0  0  0  0  0  0  0  0
   -3.0185    1.0375   -2.2689 C   0  0  0  0  0  0  0  0  0  0  0  0
   -0.4809   -1.6210   -2.5679 N   0  0  0  0  0  0  0  0  0  0  0  0
    0.6834   -0.9411   -2.4248 C   0  0  0  0  0  0  0  0  0  0  0  0
    0.6956    0.4360   -2.2441 C   0  0  0  0  0  0  0  0  0  0  0  0
   -0.5114    1.1522   -2.1869 C   0  0  0  0  0  0  0  0  0  0  0  0
    1.9147   -1.7592   -2.4783 C   0  0  0  0  0  0  0  0  0  0  0  0
    1.9732   -2.9234   -3.2691 C   0  0  0  0  0  0  0  0  0  0  0  0
    3.1287   -3.7092   -3.3312 C   0  0  0  0  0  0  0  0  0  0  0  0
    4.2550   -3.3499   -2.5982 C   0  0  0  0  0  0  0  0  0  0  0  0
    4.2248   -2.2088   -1.8026 C   0  0  0  0  0  0  0  0  0  0  0  0
    3.0676   -1.4242   -1.7427 C   0  0  0  0  0  0  0  0  0  0  0  0
   -0.4226    2.6496   -1.9876 C   0  0  0  0  0  0  0  0  0  0  0  0
    0.0553    3.1057   -0.5980 C   0  0  0  0  0  0  0  0  0  0  0  0
   -0.9833    2.9439    0.5379 C   0  0  0  0  0  0  0  0  0  0  0  0
   -1.0083    1.5408    1.1696 C   0  0  0  0  0  0  0  0  0  0  0  0
    0.2185    1.2552    2.0374 C   0  0  0  0  0  0  0  0  0  0  0  0
    0.3874    2.2713    3.0808 N   0  0  0  0  0  0  0  0  0  0  0  0
    0.5084    3.6112    2.4986 C   0  0  0  0  0  0  0  0  0  0  0  0
   -0.7226    3.9644    1.6638 C   0  0  0  0  0  0  0  0  0  0  0  0
   -5.1554    0.7534   -2.3631 H   0  0  0  0  0  0  0  0  0  0  0  0
   -4.9740   -1.6997   -2.7148 H   0  0  0  0  0  0  0  0  0  0  0  0
   -2.7527   -2.7661   -2.8047 H   0  0  0  0  0  0  0  0  0  0  0  0
   -3.1416    2.1059   -2.1084 H   0  0  0  0  0  0  0  0  0  0  0  0
    1.6397    0.9692   -2.1605 H   0  0  0  0  0  0  0  0  0  0  0  0
    1.1061   -3.2274   -3.8559 H   0  0  0  0  0  0  0  0  0  0  0  0
    3.1447   -4.6021   -3.9536 H   0  0  0  0  0  0  0  0  0  0  0  0
    5.1549   -3.9605   -2.6441 H   0  0  0  0  0  0  0  0  0  0  0  0
    5.1015   -1.9269   -1.2216 H   0  0  0  0  0  0  0  0  0  0  0  0
    3.0784   -0.5487   -1.0943 H   0  0  0  0  0  0  0  0  0  0  0  0
   -1.3579    3.1573   -2.2387 H   0  0  0  0  0  0  0  0  0  0  0  0
    0.2932    3.0279   -2.7314 H   0  0  0  0  0  0  0  0  0  0  0  0
    0.2903    4.1740   -0.6977 H   0  0  0  0  0  0  0  0  0  0  0  0
    1.0005    2.6163   -0.3401 H   0  0  0  0  0  0  0  0  0  0  0  0
   -1.9764    3.1578    0.1229 H   0  0  0  0  0  0  0  0  0  0  0  0
   -1.1032    0.7593    0.4142 H   0  0  0  0  0  0  0  0  0  0  0  0
   -1.9064    1.4598    1.7973 H   0  0  0  0  0  0  0  0  0  0  0  0
    1.1242    1.1859    1.4242 H   0  0  0  0  0  0  0  0  0  0  0  0
    0.0918    0.2799    2.5203 H   0  0  0  0  0  0  0  0  0  0  0  0
    1.2516    2.0639    3.5960 H   0  0  0  0  0  0  0  0  0  0  0  0
    1.4212    3.6832    1.8955 H   0  0  0  0  0  0  0  0  0  0  0  0
    0.6075    4.3374    3.3128 H   0  0  0  0  0  0  0  0  0  0  0  0
   -1.6018    3.9978    2.3216 H   0  0  0  0  0  0  0  0  0  0  0  0
   -0.6125    4.9737    1.2500 H   0  0  0  0  0  0  0  0  0  0  0  0
  1  2  2  0  0  0  0
  1  6  1  0  0  0  0
  1 25  1  0  0  0  0
  2  3  1  0  0  0  0
  2 26  1  0  0  0  0
  3  4  2  0  0  0  0
  3 27  1  0  0  0  0
  4  5  1  0  0  0  0
  4  7  1  0  0  0  0
  5  6  2  0  0  0  0
  5 10  1  0  0  0  0
  6 28  1  0  0  0  0
  7  8  2  0  0  0  0
  8  9  1  0  0  0  0
  8 11  1  0  0  0  0
  9 10  2  0  0  0  0
  9 29  1  0  0  0  0
 10 17  1  0  0  0  0
 11 12  2  0  0  0  0
 11 16  1  0  0  0  0
 12 13  1  0  0  0  0
 12 30  1  0  0  0  0
 13 14  2  0  0  0  0
 13 31  1  0  0  0  0
 14 15  1  0  0  0  0
 14 32  1  0  0  0  0
 15 16  2  0  0  0  0
 15 33  1  0  0  0  0
 16 34  1  0  0  0  0
 17 18  1  0  0  0  0
 17 35  1  0  0  0  0
 17 36  1  0  0  0  0
 18 19  1  0  0  0  0
 18 37  1  0  0  0  0
 18 38  1  0  0  0  0
 19 20  1  0  0  0  0
 19 24  1  0  0  0  0
 19 39  1  0  0  0  0
 20 21  1  0  0  0  0
 20 40  1  0  0  0  0
 20 41  1  0  0  0  0
 21 22  1  0  0  0  0
 21 42  1  0  0  0  0
 21 43  1  0  0  0  0
 22 23  1  0  0  0  0
 22 44  1  0  0  0  0
 23 24  1  0  0  0  0
 23 45  1  0  0  0  0
 23 46  1  0  0  0  0
 24 47  1  0  0  0  0
 24 48  1  0  0  0  0
M  END
