PK9084
 OpenBabel04201808233D
Structure written by MMmdl.
 48 51  0  0  0  0  0  0  0  0999 V2000
   -4.1484    0.2867   -2.4095 C   0  0  0  0  0  0  0  0  0  0  0  0
   -4.0609   -1.0798   -2.6211 C   0  0  0  0  0  0  0  0  0  0  0  0
   -2.8058   -1.6869   -2.6871 C   0  0  0  0  0  0  0  0  0  0  0  0
   -1.6281   -0.9636   -2.5478 C   0  0  0  0  0  0  0  0  0  0  0  0
   -1.7005    0.4330   -2.3371 C   0  0  0  0  0  0  0  0  0  0  0  0
   -2.9810    1.0370   -2.2686 C   0  0  0  0  0  0  0  0  0  0  0  0
   -0.4680   -1.6388   -2.6184 N   0  0  0  0  0  0  0  0  0  0  0  0
    0.7028   -0.9699   -2.4752 C   0  0  0  0  0  0  0  0  0  0  0  0
    0.7275    0.4045   -2.2743 C   0  0  0  0  0  0  0  0  0  0  0  0
   -0.4730    1.1296   -2.2015 C   0  0  0  0  0  0  0  0  0  0  0  0
    1.9275   -1.7956   -2.5577 C   0  0  0  0  0  0  0  0  0  0  0  0
    1.9701   -2.9427   -3.3740 C   0  0  0  0  0  0  0  0  0  0  0  0
    3.1204   -3.7331   -3.4669 C   0  0  0  0  0  0  0  0  0  0  0  0
    4.2571   -3.3961   -2.7393 C   0  0  0  0  0  0  0  0  0  0  0  0
    4.2423   -2.2727   -1.9183 C   0  0  0  0  0  0  0  0  0  0  0  0
    3.0904   -1.4833   -1.8279 C   0  0  0  0  0  0  0  0  0  0  0  0
   -0.3710    2.6243   -1.9903 C   0  0  0  0  0  0  0  0  0  0  0  0
    0.0736    3.0667   -0.5857 C   0  0  0  0  0  0  0  0  0  0  0  0
   -0.9918    2.8766    0.5223 C   0  0  1  0  0  0  0  0  0  0  0  0
   -0.9699    1.4822    1.1831 C   0  0  0  0  0  0  0  0  0  0  0  0
    0.2154    1.2346    2.0179 N   0  0  0  0  0  0  0  0  0  0  0  0
    0.3330    2.2470    3.0725 C   0  0  0  0  0  0  0  0  0  0  0  0
    0.3825    3.6641    2.5081 C   0  0  0  0  0  0  0  0  0  0  0  0
   -0.8298    3.9431    1.6237 C   0  0  0  0  0  0  0  0  0  0  0  0
   -5.1207    0.7724   -2.3526 H   0  0  0  0  0  0  0  0  0  0  0  0
   -4.9629   -1.6780   -2.7332 H   0  0  0  0  0  0  0  0  0  0  0  0
   -2.7515   -2.7622   -2.8508 H   0  0  0  0  0  0  0  0  0  0  0  0
   -3.0937    2.1049   -2.0981 H   0  0  0  0  0  0  0  0  0  0  0  0
    1.6765    0.9289   -2.1899 H   0  0  0  0  0  0  0  0  0  0  0  0
    1.0948   -3.2287   -3.9577 H   0  0  0  0  0  0  0  0  0  0  0  0
    3.1245   -4.6121   -4.1093 H   0  0  0  0  0  0  0  0  0  0  0  0
    5.1530   -4.0102   -2.8093 H   0  0  0  0  0  0  0  0  0  0  0  0
    5.1271   -2.0085   -1.3415 H   0  0  0  0  0  0  0  0  0  0  0  0
    3.1131   -0.6222   -1.1608 H   0  0  0  0  0  0  0  0  0  0  0  0
   -1.2941    3.1424   -2.2653 H   0  0  0  0  0  0  0  0  0  0  0  0
    0.3683    3.0005   -2.7121 H   0  0  0  0  0  0  0  0  0  0  0  0
    0.3025    4.1377   -0.6672 H   0  0  0  0  0  0  0  0  0  0  0  0
    1.0173    2.5808   -0.3152 H   0  0  0  0  0  0  0  0  0  0  0  0
   -1.9814    3.0292    0.0733 H   0  0  0  0  0  0  0  0  0  0  0  0
   -1.0273    0.6911    0.4333 H   0  0  0  0  0  0  0  0  0  0  0  0
   -1.8669    1.3633    1.8048 H   0  0  0  0  0  0  0  0  0  0  0  0
    1.0477    1.2947    1.4228 H   0  0  0  0  0  0  0  0  0  0  0  0
    1.2445    2.0516    3.6480 H   0  0  0  0  0  0  0  0  0  0  0  0
   -0.5055    2.1465    3.7724 H   0  0  0  0  0  0  0  0  0  0  0  0
    1.3056    3.8044    1.9326 H   0  0  0  0  0  0  0  0  0  0  0  0
    0.4095    4.3865    3.3318 H   0  0  0  0  0  0  0  0  0  0  0  0
   -1.7315    3.9448    2.2502 H   0  0  0  0  0  0  0  0  0  0  0  0
   -0.7552    4.9463    1.1884 H   0  0  0  0  0  0  0  0  0  0  0  0
  1  2  2  0  0  0  0
  1  6  1  0  0  0  0
  1 25  1  0  0  0  0
  2  3  1  0  0  0  0
  2 26  1  0  0  0  0
  3  4  2  0  0  0  0
  3 27  1  0  0  0  0
  4  5  1  0  0  0  0
  4  7  1  0  0  0  0
  5  6  2  0  0  0  0
  5 10  1  0  0  0  0
  6 28  1  0  0  0  0
  7  8  2  0  0  0  0
  8  9  1  0  0  0  0
  8 11  1  0  0  0  0
  9 10  2  0  0  0  0
  9 29  1  0  0  0  0
 10 17  1  0  0  0  0
 11 12  2  0  0  0  0
 11 16  1  0  0  0  0
 12 13  1  0  0  0  0
 12 30  1  0  0  0  0
 13 14  2  0  0  0  0
 13 31  1  0  0  0  0
 14 15  1  0  0  0  0
 14 32  1  0  0  0  0
 15 16  2  0  0  0  0
 15 33  1  0  0  0  0
 16 34  1  0  0  0  0
 17 18  1  0  0  0  0
 17 35  1  0  0  0  0
 17 36  1  0  0  0  0
 18 19  1  0  0  0  0
 18 37  1  0  0  0  0
 18 38  1  0  0  0  0
 19 20  1  0  0  0  0
 19 24  1  0  0  0  0
 19 39  1  6  0  0  0
 20 21  1  0  0  0  0
 20 40  1  0  0  0  0
 20 41  1  0  0  0  0
 21 22  1  0  0  0  0
 21 42  1  0  0  0  0
 22 23  1  0  0  0  0
 22 43  1  0  0  0  0
 22 44  1  0  0  0  0
 23 24  1  0  0  0  0
 23 45  1  0  0  0  0
 23 46  1  0  0  0  0
 24 47  1  0  0  0  0
 24 48  1  0  0  0  0
M  END
