2-37
 OpenBabel04201808233D
Structure written by MMmdl.
 23 24  0  0  0  0  0  0  0  0999 V2000
   -3.4041   -0.5701   -0.8531 C   0  0  0  0  0  0  0  0  0  0  0  0
   -3.2647   -1.9498   -0.9475 C   0  0  0  0  0  0  0  0  0  0  0  0
   -1.9917   -2.5270   -0.8969 C   0  0  0  0  0  0  0  0  0  0  0  0
   -0.8451   -1.7560   -0.7533 C   0  0  0  0  0  0  0  0  0  0  0  0
   -0.9924   -0.3541   -0.6577 C   0  0  0  0  0  0  0  0  0  0  0  0
   -2.2713    0.2279   -0.7084 C   0  0  0  0  0  0  0  0  0  0  0  0
    0.3611   -2.3544   -0.7094 N   0  0  0  0  0  0  0  0  0  0  0  0
    1.4595   -1.5623   -0.5679 C   0  0  0  0  0  0  0  0  0  0  0  0
    1.4177   -0.1803   -0.4659 C   0  0  0  0  0  0  0  0  0  0  0  0
    0.1635    0.4292   -0.5124 C   0  0  0  0  0  0  0  0  0  0  0  0
    2.6908    0.5626   -0.3152 C   0  0  0  0  0  0  0  0  0  0  0  0
    3.7905    0.0289   -0.2767 O   0  0  0  0  0  0  0  0  0  0  0  0
    2.4583    1.8966   -0.2280 O   0  0  0  0  0  0  0  0  0  0  0  0
    3.6351    2.6990   -0.0797 C   0  0  0  0  0  0  0  0  0  0  0  0
   -4.3922   -0.1152   -0.8919 H   0  0  0  0  0  0  0  0  0  0  0  0
   -4.1436   -2.5819   -1.0608 H   0  0  0  0  0  0  0  0  0  0  0  0
   -1.8994   -3.6091   -0.9723 H   0  0  0  0  0  0  0  0  0  0  0  0
   -2.3920    1.3081   -0.6353 H   0  0  0  0  0  0  0  0  0  0  0  0
    2.4052   -2.1005   -0.5388 H   0  0  0  0  0  0  0  0  0  0  0  0
    0.0734    1.5108   -0.4370 H   0  0  0  0  0  0  0  0  0  0  0  0
    4.2892    2.5796   -0.9488 H   0  0  0  0  0  0  0  0  0  0  0  0
    4.1618    2.4358    0.8427 H   0  0  0  0  0  0  0  0  0  0  0  0
    3.3250    3.7457   -0.0176 H   0  0  0  0  0  0  0  0  0  0  0  0
  1  2  2  0  0  0  0
  1  6  1  0  0  0  0
  1 15  1  0  0  0  0
  2  3  1  0  0  0  0
  2 16  1  0  0  0  0
  3  4  2  0  0  0  0
  3 17  1  0  0  0  0
  4  5  1  0  0  0  0
  4  7  1  0  0  0  0
  5  6  2  0  0  0  0
  5 10  1  0  0  0  0
  6 18  1  0  0  0  0
  7  8  2  0  0  0  0
  8  9  1  0  0  0  0
  8 19  1  0  0  0  0
  9 10  2  0  0  0  0
  9 11  1  0  0  0  0
 10 20  1  0  0  0  0
 11 12  2  0  0  0  0
 11 13  1  0  0  0  0
 13 14  1  0  0  0  0
 14 21  1  0  0  0  0
 14 22  1  0  0  0  0
 14 23  1  0  0  0  0
M  END
