2-39
 OpenBabel04201808233D
Structure written by MMmdl.
 19 20  0  0  0  0  0  0  0  0999 V2000
   -3.0739    0.7211    0.0506 C   0  0  0  0  0  0  0  0  0  0  0  0
   -3.0680   -0.6684    0.0871 C   0  0  0  0  0  0  0  0  0  0  0  0
   -1.8529   -1.3602    0.1236 C   0  0  0  0  0  0  0  0  0  0  0  0
   -0.6330   -0.6957    0.1246 C   0  0  0  0  0  0  0  0  0  0  0  0
   -0.6454    0.7182    0.0873 C   0  0  0  0  0  0  0  0  0  0  0  0
   -1.8659    1.4150    0.0506 C   0  0  0  0  0  0  0  0  0  0  0  0
    0.5136   -1.4044    0.1606 N   0  0  0  0  0  0  0  0  0  0  0  0
    1.6867   -0.7156    0.1603 C   0  0  0  0  0  0  0  0  0  0  0  0
    1.7671    0.6654    0.1252 C   0  0  0  0  0  0  0  0  0  0  0  0
    0.5832    1.3950    0.0881 C   0  0  0  0  0  0  0  0  0  0  0  0
    3.0688    1.3530    0.1269 C   0  0  0  0  0  0  0  0  0  0  0  0
    4.1344    0.7414    0.1591 O   0  0  0  0  0  0  0  0  0  0  0  0
   -4.0167    1.2645    0.0221 H   0  0  0  0  0  0  0  0  0  0  0  0
   -4.0068   -1.2194    0.0875 H   0  0  0  0  0  0  0  0  0  0  0  0
   -1.8658   -2.4484    0.1520 H   0  0  0  0  0  0  0  0  0  0  0  0
   -1.8818    2.5039    0.0218 H   0  0  0  0  0  0  0  0  0  0  0  0
    2.5827   -1.3315    0.1900 H   0  0  0  0  0  0  0  0  0  0  0  0
    0.6108    2.4823    0.0600 H   0  0  0  0  0  0  0  0  0  0  0  0
    3.0404    2.4557    0.0975 H   0  0  0  0  0  0  0  0  0  0  0  0
  1  2  2  0  0  0  0
  1  6  1  0  0  0  0
  1 13  1  0  0  0  0
  2  3  1  0  0  0  0
  2 14  1  0  0  0  0
  3  4  2  0  0  0  0
  3 15  1  0  0  0  0
  4  5  1  0  0  0  0
  4  7  1  0  0  0  0
  5  6  2  0  0  0  0
  5 10  1  0  0  0  0
  6 16  1  0  0  0  0
  7  8  2  0  0  0  0
  8  9  1  0  0  0  0
  8 17  1  0  0  0  0
  9 10  2  0  0  0  0
  9 11  1  0  0  0  0
 10 18  1  0  0  0  0
 11 12  2  0  0  0  0
 11 19  1  0  0  0  0
M  END
