Ro20-7736
 OpenBabel04201808233D
Structure written by MMmdl.
 36 38  0  0  0  0  0  0  0  0999 V2000
   -2.1288    2.4754   -0.1744 C   0  0  0  0  0  0  0  0  0  0  0  0
   -2.3712    1.1159    0.0072 C   0  0  0  0  0  0  0  0  0  0  0  0
   -1.2718    0.2724    0.1798 C   0  0  0  0  0  0  0  0  0  0  0  0
    0.0486    0.7718    0.1820 C   0  0  0  0  0  0  0  0  0  0  0  0
    0.2904    2.1540    0.0505 C   0  0  0  0  0  0  0  0  0  0  0  0
   -0.8240    2.9857   -0.1552 C   0  0  0  0  0  0  0  0  0  0  0  0
    1.1511   -0.2388    0.2471 C   0  0  0  0  0  0  0  0  0  0  0  0
    2.2038   -0.1363    0.9920 N   0  0  0  0  0  0  0  0  0  0  0  0
    2.3187    1.0743    1.8053 C   0  0  0  0  0  0  0  0  0  0  0  0
    2.6438    2.2447    0.8868 C   0  0  0  0  0  0  0  0  0  0  0  0
    1.5975    2.7433    0.1068 N   0  0  0  0  0  0  0  0  0  0  0  0
    1.0452   -1.4447   -0.6237 C   0  0  0  0  0  0  0  0  0  0  0  0
    3.7782    2.7395    0.8836 O   0  0  0  0  0  0  0  0  0  0  0  0
    1.4212   -2.7018   -0.1329 C   0  0  0  0  0  0  0  0  0  0  0  0
    1.3061   -3.8293   -0.9501 C   0  0  0  0  0  0  0  0  0  0  0  0
    0.8142   -3.7064   -2.2508 C   0  0  0  0  0  0  0  0  0  0  0  0
    0.4345   -2.4556   -2.7385 C   0  0  0  0  0  0  0  0  0  0  0  0
    0.5482   -1.3315   -1.9239 C   0  0  0  0  0  0  0  0  0  0  0  0
    1.8335    3.9859   -0.6256 C   0  0  0  0  0  0  0  0  0  0  0  0
   -3.6644    0.5878    0.0019 N   0  0  0  0  0  0  0  0  0  0  0  0
   -3.9257   -0.7577    0.2125 O   0  0  0  0  0  0  0  0  0  0  0  0
    0.1996   -0.1386   -2.4296 F   0  0  0  0  0  0  0  0  0  0  0  0
   -2.9578    3.1655   -0.3229 H   0  0  0  0  0  0  0  0  0  0  0  0
   -1.4480   -0.7943    0.3098 H   0  0  0  0  0  0  0  0  0  0  0  0
   -0.7157    4.0627   -0.2680 H   0  0  0  0  0  0  0  0  0  0  0  0
    3.1529    0.9464    2.5040 H   0  0  0  0  0  0  0  0  0  0  0  0
    1.4306    1.2729    2.4155 H   0  0  0  0  0  0  0  0  0  0  0  0
    1.7928   -2.8193    0.8829 H   0  0  0  0  0  0  0  0  0  0  0  0
    1.5976   -4.8074   -0.5700 H   0  0  0  0  0  0  0  0  0  0  0  0
    0.7264   -4.5872   -2.8849 H   0  0  0  0  0  0  0  0  0  0  0  0
    0.0538   -2.3526   -3.7510 H   0  0  0  0  0  0  0  0  0  0  0  0
    2.9014    4.1420   -0.8057 H   0  0  0  0  0  0  0  0  0  0  0  0
    1.4652    4.8266   -0.0297 H   0  0  0  0  0  0  0  0  0  0  0  0
    1.3340    3.9544   -1.5992 H   0  0  0  0  0  0  0  0  0  0  0  0
   -4.4591    1.1981   -0.2109 H   0  0  0  0  0  0  0  0  0  0  0  0
   -4.0608   -1.1129   -0.6944 H   0  0  0  0  0  0  0  0  0  0  0  0
  1  2  2  0  0  0  0
  1  6  1  0  0  0  0
  1 23  1  0  0  0  0
  2  3  1  0  0  0  0
  2 20  1  0  0  0  0
  3  4  2  0  0  0  0
  3 24  1  0  0  0  0
  4  5  1  0  0  0  0
  4  7  1  0  0  0  0
  5  6  2  0  0  0  0
  5 11  1  0  0  0  0
  6 25  1  0  0  0  0
  7  8  2  0  0  0  0
  7 12  1  0  0  0  0
  8  9  1  0  0  0  0
  9 10  1  0  0  0  0
  9 26  1  0  0  0  0
  9 27  1  0  0  0  0
 10 11  1  0  0  0  0
 10 13  2  0  0  0  0
 11 19  1  0  0  0  0
 12 14  2  0  0  0  0
 12 18  1  0  0  0  0
 14 15  1  0  0  0  0
 14 28  1  0  0  0  0
 15 16  2  0  0  0  0
 15 29  1  0  0  0  0
 16 17  1  0  0  0  0
 16 30  1  0  0  0  0
 17 18  2  0  0  0  0
 17 31  1  0  0  0  0
 18 22  1  0  0  0  0
 19 32  1  0  0  0  0
 19 33  1  0  0  0  0
 19 34  1  0  0  0  0
 20 21  1  0  0  0  0
 20 35  1  0  0  0  0
 21 36  1  0  0  0  0
M  END
