3-3b
 OpenBabel04201808233D
Structure written by MMmdl.
 31 32  0  0  0  0  0  0  0  0999 V2000
   -2.5021   -0.1014    0.1038 C   0  0  0  0  0  0  0  0  0  0  0  0
   -2.5454   -1.4985    0.1108 C   0  0  0  0  0  0  0  0  0  0  0  0
   -1.3626   -2.2397    0.1416 C   0  0  0  0  0  0  0  0  0  0  0  0
   -0.1182   -1.5874    0.1087 C   0  0  0  0  0  0  0  0  0  0  0  0
   -0.0659   -0.1804    0.0515 C   0  0  0  0  0  0  0  0  0  0  0  0
   -1.2671    0.5501    0.0434 C   0  0  0  0  0  0  0  0  0  0  0  0
    1.0955   -2.2771    0.1233 C   0  0  0  0  0  0  0  0  0  0  0  0
    2.3145   -1.6852    0.0850 N   0  0  0  0  0  0  0  0  0  0  0  0
    2.3382   -0.3234    0.0275 C   0  0  0  0  0  0  0  0  0  0  0  0
    1.1833    0.4541    0.0094 C   0  0  0  0  0  0  0  0  0  0  0  0
    3.7121    0.2850   -0.0140 C   0  0  0  0  0  0  0  0  0  0  0  0
    4.7522   -0.3627    0.0039 O   0  0  0  0  0  0  0  0  0  0  0  0
    3.6423    1.6424   -0.0741 O   0  0  0  0  0  0  0  0  0  0  0  0
    4.9111    2.3045   -0.1176 C   0  0  0  0  0  0  0  0  0  0  0  0
   -3.6070    0.7082    0.0913 O   0  0  0  0  0  0  0  0  0  0  0  0
   -4.5092    0.4424    1.1697 C   0  0  0  0  0  0  0  0  0  0  0  0
   -3.7287   -2.1887    0.1243 O   0  0  0  0  0  0  0  0  0  0  0  0
   -4.2072   -2.3621   -1.2151 C   0  0  0  0  0  0  0  0  0  0  0  0
   -1.4126   -3.3266    0.1771 H   0  0  0  0  0  0  0  0  0  0  0  0
   -1.2447    1.6386    0.0055 H   0  0  0  0  0  0  0  0  0  0  0  0
    1.1178   -3.3651    0.1664 H   0  0  0  0  0  0  0  0  0  0  0  0
    1.2426    1.5376   -0.0349 H   0  0  0  0  0  0  0  0  0  0  0  0
    4.7290    3.3816   -0.1644 H   0  0  0  0  0  0  0  0  0  0  0  0
    5.4663    2.0054   -1.0120 H   0  0  0  0  0  0  0  0  0  0  0  0
    5.4855    2.0868    0.7881 H   0  0  0  0  0  0  0  0  0  0  0  0
   -5.0333    1.3751    1.3994 H   0  0  0  0  0  0  0  0  0  0  0  0
   -3.9917    0.1153    2.0789 H   0  0  0  0  0  0  0  0  0  0  0  0
   -5.2586   -0.2930    0.8639 H   0  0  0  0  0  0  0  0  0  0  0  0
   -3.4904   -2.9285   -1.8198 H   0  0  0  0  0  0  0  0  0  0  0  0
   -4.4275   -1.3980   -1.6858 H   0  0  0  0  0  0  0  0  0  0  0  0
   -5.1375   -2.9355   -1.1643 H   0  0  0  0  0  0  0  0  0  0  0  0
  1  2  2  0  0  0  0
  1  6  1  0  0  0  0
  1 15  1  0  0  0  0
  2  3  1  0  0  0  0
  2 17  1  0  0  0  0
  3  4  2  0  0  0  0
  3 19  1  0  0  0  0
  4  5  1  0  0  0  0
  4  7  1  0  0  0  0
  5  6  2  0  0  0  0
  5 10  1  0  0  0  0
  6 20  1  0  0  0  0
  7  8  2  0  0  0  0
  7 21  1  0  0  0  0
  8  9  1  0  0  0  0
  9 10  2  0  0  0  0
  9 11  1  0  0  0  0
 10 22  1  0  0  0  0
 11 12  2  0  0  0  0
 11 13  1  0  0  0  0
 13 14  1  0  0  0  0
 14 23  1  0  0  0  0
 14 24  1  0  0  0  0
 14 25  1  0  0  0  0
 15 16  1  0  0  0  0
 16 26  1  0  0  0  0
 16 27  1  0  0  0  0
 16 28  1  0  0  0  0
 17 18  1  0  0  0  0
 18 29  1  0  0  0  0
 18 30  1  0  0  0  0
 18 31  1  0  0  0  0
M  END
