2-35
 OpenBabel04201808233D
Structure written by MMmdl.
 23 24  0  0  0  0  0  0  0  0999 V2000
   -2.3466    0.6976    0.0657 C   0  0  0  0  0  0  0  0  0  0  0  0
   -2.3468   -0.6940   -0.0291 C   0  0  0  0  0  0  0  0  0  0  0  0
   -1.1434   -1.3957   -0.0819 C   0  0  0  0  0  0  0  0  0  0  0  0
    0.0779   -0.7033   -0.0466 C   0  0  0  0  0  0  0  0  0  0  0  0
    0.0741    0.7009    0.0694 C   0  0  0  0  0  0  0  0  0  0  0  0
   -1.1431    1.3980    0.1127 C   0  0  0  0  0  0  0  0  0  0  0  0
    1.3774   -1.4788   -0.0642 C   0  0  0  0  0  0  0  0  0  0  0  0
    2.5472   -0.6695   -0.4459 N   0  0  0  0  0  0  0  0  0  0  0  0
    2.5815    0.5547    0.3696 C   0  0  0  0  0  0  0  0  0  0  0  0
    1.3786    1.4623    0.0864 C   0  0  0  0  0  0  0  0  0  0  0  0
   -3.5373    1.3696    0.1121 O   0  0  0  0  0  0  0  0  0  0  0  0
   -3.5382   -1.3654   -0.0687 O   0  0  0  0  0  0  0  0  0  0  0  0
   -1.1419   -2.4821   -0.1502 H   0  0  0  0  0  0  0  0  0  0  0  0
   -1.1378    2.4841    0.1824 H   0  0  0  0  0  0  0  0  0  0  0  0
    1.2989   -2.3084   -0.7763 H   0  0  0  0  0  0  0  0  0  0  0  0
    1.5443   -1.9149    0.9282 H   0  0  0  0  0  0  0  0  0  0  0  0
    2.4178   -0.3927   -1.4260 H   0  0  0  0  0  0  0  0  0  0  0  0
    3.5057    1.1020    0.1532 H   0  0  0  0  0  0  0  0  0  0  0  0
    2.6197    0.2878    1.4336 H   0  0  0  0  0  0  0  0  0  0  0  0
    1.3408    2.2509    0.8470 H   0  0  0  0  0  0  0  0  0  0  0  0
    1.5052    1.9418   -0.8924 H   0  0  0  0  0  0  0  0  0  0  0  0
   -3.3499    2.3296    0.1780 H   0  0  0  0  0  0  0  0  0  0  0  0
   -3.3526   -2.3256   -0.1362 H   0  0  0  0  0  0  0  0  0  0  0  0
  1  2  2  0  0  0  0
  1  6  1  0  0  0  0
  1 11  1  0  0  0  0
  2  3  1  0  0  0  0
  2 12  1  0  0  0  0
  3  4  2  0  0  0  0
  3 13  1  0  0  0  0
  4  5  1  0  0  0  0
  4  7  1  0  0  0  0
  5  6  2  0  0  0  0
  5 10  1  0  0  0  0
  6 14  1  0  0  0  0
  7  8  1  0  0  0  0
  7 15  1  0  0  0  0
  7 16  1  0  0  0  0
  8  9  1  0  0  0  0
  8 17  1  0  0  0  0
  9 10  1  0  0  0  0
  9 18  1  0  0  0  0
  9 19  1  0  0  0  0
 10 20  1  0  0  0  0
 10 21  1  0  0  0  0
 11 22  1  0  0  0  0
 12 23  1  0  0  0  0
M  END
