2-36
 OpenBabel04201808233D
Structure written by MMmdl.
 29 30  0  0  0  0  0  0  0  0999 V2000
   -1.5211    0.6962    0.0851 C   0  0  0  0  0  0  0  0  0  0  0  0
   -1.5215   -0.6936   -0.0549 C   0  0  0  0  0  0  0  0  0  0  0  0
   -0.3165   -1.3952   -0.0910 C   0  0  0  0  0  0  0  0  0  0  0  0
    0.9046   -0.7044   -0.0471 C   0  0  0  0  0  0  0  0  0  0  0  0
    0.9010    0.7000    0.0692 C   0  0  0  0  0  0  0  0  0  0  0  0
   -0.3159    1.3959    0.1180 C   0  0  0  0  0  0  0  0  0  0  0  0
    2.2034   -1.4804   -0.0600 C   0  0  0  0  0  0  0  0  0  0  0  0
    3.3735   -0.6723   -0.4430 N   0  0  0  0  0  0  0  0  0  0  0  0
    3.4078    0.5541    0.3693 C   0  0  0  0  0  0  0  0  0  0  0  0
    2.2050    1.4614    0.0842 C   0  0  0  0  0  0  0  0  0  0  0  0
   -2.6883    1.4126    0.1280 O   0  0  0  0  0  0  0  0  0  0  0  0
   -3.2052    1.4257    1.4635 C   0  0  0  0  0  0  0  0  0  0  0  0
   -2.6892   -1.4096   -0.0930 O   0  0  0  0  0  0  0  0  0  0  0  0
   -3.2137   -1.4198   -1.4256 C   0  0  0  0  0  0  0  0  0  0  0  0
   -0.3283   -2.4814   -0.1619 H   0  0  0  0  0  0  0  0  0  0  0  0
   -0.3235    2.4820    0.1904 H   0  0  0  0  0  0  0  0  0  0  0  0
    2.1258   -2.3125   -0.7694 H   0  0  0  0  0  0  0  0  0  0  0  0
    2.3687   -1.9132    0.9341 H   0  0  0  0  0  0  0  0  0  0  0  0
    3.2448   -0.3980   -1.4238 H   0  0  0  0  0  0  0  0  0  0  0  0
    4.3321    1.1007    0.1516 H   0  0  0  0  0  0  0  0  0  0  0  0
    3.4461    0.2898    1.4340 H   0  0  0  0  0  0  0  0  0  0  0  0
    2.1674    2.2517    0.8430 H   0  0  0  0  0  0  0  0  0  0  0  0
    2.3315    1.9387   -0.8957 H   0  0  0  0  0  0  0  0  0  0  0  0
   -4.0939    2.0638    1.4699 H   0  0  0  0  0  0  0  0  0  0  0  0
   -2.4781    1.8486    2.1656 H   0  0  0  0  0  0  0  0  0  0  0  0
   -3.5061    0.4224    1.7827 H   0  0  0  0  0  0  0  0  0  0  0  0
   -4.1046   -2.0548   -1.4275 H   0  0  0  0  0  0  0  0  0  0  0  0
   -2.4917   -1.8448   -2.1318 H   0  0  0  0  0  0  0  0  0  0  0  0
   -3.5128   -0.4153   -1.7427 H   0  0  0  0  0  0  0  0  0  0  0  0
  1  2  2  0  0  0  0
  1  6  1  0  0  0  0
  1 11  1  0  0  0  0
  2  3  1  0  0  0  0
  2 13  1  0  0  0  0
  3  4  2  0  0  0  0
  3 15  1  0  0  0  0
  4  5  1  0  0  0  0
  4  7  1  0  0  0  0
  5  6  2  0  0  0  0
  5 10  1  0  0  0  0
  6 16  1  0  0  0  0
  7  8  1  0  0  0  0
  7 17  1  0  0  0  0
  7 18  1  0  0  0  0
  8  9  1  0  0  0  0
  8 19  1  0  0  0  0
  9 10  1  0  0  0  0
  9 20  1  0  0  0  0
  9 21  1  0  0  0  0
 10 22  1  0  0  0  0
 10 23  1  0  0  0  0
 11 12  1  0  0  0  0
 12 24  1  0  0  0  0
 12 25  1  0  0  0  0
 12 26  1  0  0  0  0
 13 14  1  0  0  0  0
 14 27  1  0  0  0  0
 14 28  1  0  0  0  0
 14 29  1  0  0  0  0
M  END
