3-2c
 OpenBabel04201808233D
Structure written by MMmdl.
 26 27  0  0  0  0  0  0  0  0999 V2000
   -2.9836    0.5452    0.0260 C   0  0  0  0  0  0  0  0  0  0  0  0
   -2.9834   -0.8467   -0.0599 C   0  0  0  0  0  0  0  0  0  0  0  0
   -1.7796   -1.5489   -0.0896 C   0  0  0  0  0  0  0  0  0  0  0  0
   -0.5580   -0.8573   -0.0404 C   0  0  0  0  0  0  0  0  0  0  0  0
   -0.5622    0.5465    0.0662 C   0  0  0  0  0  0  0  0  0  0  0  0
   -1.7800    1.2445    0.0868 C   0  0  0  0  0  0  0  0  0  0  0  0
    0.7388   -1.6344   -0.0330 C   0  0  0  0  0  0  0  0  0  0  0  0
    1.9088   -0.8377   -0.4255 N   0  0  0  0  0  0  0  0  0  0  0  0
    1.9549    0.4111    0.3842 C   0  0  2  0  0  0  0  0  0  0  0  0
    0.7412    1.3100    0.1018 C   0  0  0  0  0  0  0  0  0  0  0  0
    3.2365    1.1941    0.0713 C   0  0  0  0  0  0  0  0  0  0  0  0
    4.0063    1.0136   -0.8645 O   0  0  0  0  0  0  0  0  0  0  0  0
    3.4692    2.1745    0.9758 O   0  0  0  0  0  0  0  0  0  0  0  0
   -4.1741    1.2184    0.0502 O   0  0  0  0  0  0  0  0  0  0  0  0
   -4.1744   -1.5177   -0.1133 O   0  0  0  0  0  0  0  0  0  0  0  0
   -1.7780   -2.6358   -0.1507 H   0  0  0  0  0  0  0  0  0  0  0  0
   -1.7754    2.3310    0.1503 H   0  0  0  0  0  0  0  0  0  0  0  0
    0.6629   -2.4794   -0.7271 H   0  0  0  0  0  0  0  0  0  0  0  0
    0.8984   -2.0502    0.9692 H   0  0  0  0  0  0  0  0  0  0  0  0
    1.7908   -0.5682   -1.4079 H   0  0  0  0  0  0  0  0  0  0  0  0
    2.0014    0.1280    1.4442 H   0  0  0  0  0  0  0  0  0  0  0  0
    0.6837    2.0879    0.8736 H   0  0  0  0  0  0  0  0  0  0  0  0
    0.8630    1.8173   -0.8646 H   0  0  0  0  0  0  0  0  0  0  0  0
    4.3101    2.6074    0.6911 H   0  0  0  0  0  0  0  0  0  0  0  0
   -3.9872    2.1786    0.1131 H   0  0  0  0  0  0  0  0  0  0  0  0
   -3.9883   -2.4783   -0.1726 H   0  0  0  0  0  0  0  0  0  0  0  0
  1  2  2  0  0  0  0
  1  6  1  0  0  0  0
  1 14  1  0  0  0  0
  2  3  1  0  0  0  0
  2 15  1  0  0  0  0
  3  4  2  0  0  0  0
  3 16  1  0  0  0  0
  4  5  1  0  0  0  0
  4  7  1  0  0  0  0
  5  6  2  0  0  0  0
  5 10  1  0  0  0  0
  6 17  1  0  0  0  0
  7  8  1  0  0  0  0
  7 18  1  0  0  0  0
  7 19  1  0  0  0  0
  8  9  1  0  0  0  0
  8 20  1  0  0  0  0
  9 10  1  0  0  0  0
  9 11  1  0  0  0  0
  9 21  1  1  0  0  0
 10 22  1  0  0  0  0
 10 23  1  0  0  0  0
 11 12  2  0  0  0  0
 11 13  1  0  0  0  0
 13 24  1  0  0  0  0
 14 25  1  0  0  0  0
 15 26  1  0  0  0  0
M  END
