2-33
 OpenBabel04201808233D
Structure written by MMmdl.
 30 31  0  0  0  0  0  0  0  0999 V2000
   -2.7138   -0.2204   -0.6006 C   0  0  0  0  0  0  0  0  0  0  0  0
   -3.1816   -1.2993    0.1447 C   0  0  0  0  0  0  0  0  0  0  0  0
   -2.5588   -1.6706    1.3394 C   0  0  0  0  0  0  0  0  0  0  0  0
   -1.4512   -0.9213    1.7570 C   0  0  0  0  0  0  0  0  0  0  0  0
   -0.9546    0.1645    1.0324 C   0  0  0  0  0  0  0  0  0  0  0  0
   -1.6050    0.5182   -0.1689 C   0  0  0  0  0  0  0  0  0  0  0  0
   -0.6628   -1.0607    2.8770 N   0  0  0  0  0  0  0  0  0  0  0  0
    0.3093   -0.0951    2.8866 C   0  0  0  0  0  0  0  0  0  0  0  0
    0.1712    0.6838    1.7524 C   0  0  0  0  0  0  0  0  0  0  0  0
    2.4190    1.4759    0.8324 C   0  0  0  0  0  0  0  0  0  0  0  0
    1.0291    1.8598    1.3801 C   0  0  0  0  0  0  0  0  0  0  0  0
    2.4195    0.8008   -0.4881 N   0  0  0  0  0  0  0  0  0  0  0  0
    3.7532    0.2444   -0.7571 C   0  0  0  0  0  0  0  0  0  0  0  0
    2.0585    1.7319   -1.5650 C   0  0  0  0  0  0  0  0  0  0  0  0
   -3.2137    0.0538   -1.5285 H   0  0  0  0  0  0  0  0  0  0  0  0
   -4.0457   -1.8624   -0.2065 H   0  0  0  0  0  0  0  0  0  0  0  0
   -2.9259   -2.5122    1.9217 H   0  0  0  0  0  0  0  0  0  0  0  0
   -1.2536    1.3587   -0.7626 H   0  0  0  0  0  0  0  0  0  0  0  0
   -0.7902   -1.7692    3.5909 H   0  0  0  0  0  0  0  0  0  0  0  0
    1.0195   -0.0492    3.7037 H   0  0  0  0  0  0  0  0  0  0  0  0
    2.8911    0.8121    1.5694 H   0  0  0  0  0  0  0  0  0  0  0  0
    3.0417    2.3796    0.7877 H   0  0  0  0  0  0  0  0  0  0  0  0
    1.1784    2.4655    2.2843 H   0  0  0  0  0  0  0  0  0  0  0  0
    0.4980    2.5120    0.6787 H   0  0  0  0  0  0  0  0  0  0  0  0
    3.7631   -0.2813   -1.7185 H   0  0  0  0  0  0  0  0  0  0  0  0
    4.0210   -0.4957    0.0052 H   0  0  0  0  0  0  0  0  0  0  0  0
    4.5283    1.0191   -0.7769 H   0  0  0  0  0  0  0  0  0  0  0  0
    2.0744    1.2184   -2.5332 H   0  0  0  0  0  0  0  0  0  0  0  0
    2.7423    2.5867   -1.6190 H   0  0  0  0  0  0  0  0  0  0  0  0
    1.0404    2.1108   -1.4396 H   0  0  0  0  0  0  0  0  0  0  0  0
  1  2  2  0  0  0  0
  1  6  1  0  0  0  0
  1 15  1  0  0  0  0
  2  3  1  0  0  0  0
  2 16  1  0  0  0  0
  3  4  2  0  0  0  0
  3 17  1  0  0  0  0
  4  5  1  0  0  0  0
  4  7  1  0  0  0  0
  5  6  2  0  0  0  0
  5  9  1  0  0  0  0
  6 18  1  0  0  0  0
  7  8  1  0  0  0  0
  7 19  1  0  0  0  0
  8  9  2  0  0  0  0
  8 20  1  0  0  0  0
  9 11  1  0  0  0  0
 10 11  1  0  0  0  0
 10 12  1  0  0  0  0
 10 21  1  0  0  0  0
 10 22  1  0  0  0  0
 11 23  1  0  0  0  0
 11 24  1  0  0  0  0
 12 13  1  0  0  0  0
 12 14  1  0  0  0  0
 13 25  1  0  0  0  0
 13 26  1  0  0  0  0
 13 27  1  0  0  0  0
 14 28  1  0  0  0  0
 14 29  1  0  0  0  0
 14 30  1  0  0  0  0
M  END
