2-34
 OpenBabel04201808233D
Structure written by MMmdl.
 36 37  0  0  0  0  0  0  0  0999 V2000
   -3.5452   -0.6725   -0.2913 C   0  0  0  0  0  0  0  0  0  0  0  0
   -3.8708   -1.7610    0.5133 C   0  0  0  0  0  0  0  0  0  0  0  0
   -3.0235   -2.1684    1.5471 C   0  0  0  0  0  0  0  0  0  0  0  0
   -1.8392   -1.4456    1.7420 C   0  0  0  0  0  0  0  0  0  0  0  0
   -1.4804   -0.3521    0.9510 C   0  0  0  0  0  0  0  0  0  0  0  0
   -2.3573    0.0392   -0.0830 C   0  0  0  0  0  0  0  0  0  0  0  0
   -0.8421   -1.6214    2.6747 N   0  0  0  0  0  0  0  0  0  0  0  0
    0.1299   -0.6710    2.5031 C   0  0  0  0  0  0  0  0  0  0  0  0
   -0.2204    0.1324    1.4337 C   0  0  0  0  0  0  0  0  0  0  0  0
    1.8877    0.9104    0.2074 C   0  0  1  0  0  0  0  0  0  0  0  0
    0.5678    1.3026    0.9149 C   0  0  0  0  0  0  0  0  0  0  0  0
    1.7252    0.1412   -1.0725 N   0  0  0  0  0  0  0  0  0  0  0  0
    3.0095   -0.3814   -1.5515 C   0  0  0  0  0  0  0  0  0  0  0  0
    1.0338    0.8507   -2.1488 C   0  0  0  0  0  0  0  0  0  0  0  0
    2.7182    2.2018    0.0392 C   0  0  0  0  0  0  0  0  0  0  0  0
    2.3898    3.1167   -0.7204 O   0  0  0  0  0  0  0  0  0  0  0  0
    3.8643    2.3385    0.7562 O   0  0  0  0  0  0  0  0  0  0  0  0
    4.2176    1.4515    1.8319 C   0  0  0  0  0  0  0  0  0  0  0  0
   -4.2203   -0.3690   -1.0902 H   0  0  0  0  0  0  0  0  0  0  0  0
   -4.7998   -2.3023    0.3372 H   0  0  0  0  0  0  0  0  0  0  0  0
   -3.2801   -3.0167    2.1771 H   0  0  0  0  0  0  0  0  0  0  0  0
   -2.1223    0.8893   -0.7190 H   0  0  0  0  0  0  0  0  0  0  0  0
   -0.8356   -2.3426    3.3873 H   0  0  0  0  0  0  0  0  0  0  0  0
    0.9911   -0.6542    3.1605 H   0  0  0  0  0  0  0  0  0  0  0  0
    2.4028    0.2214    0.8806 H   0  0  0  0  0  0  0  0  0  0  0  0
    0.8040    1.9459    1.7749 H   0  0  0  0  0  0  0  0  0  0  0  0
   -0.0572    1.9252    0.2647 H   0  0  0  0  0  0  0  0  0  0  0  0
    2.8565   -1.0405   -2.4135 H   0  0  0  0  0  0  0  0  0  0  0  0
    3.4932   -0.9883   -0.7783 H   0  0  0  0  0  0  0  0  0  0  0  0
    3.6990    0.4162   -1.8489 H   0  0  0  0  0  0  0  0  0  0  0  0
    0.8101    0.1542   -2.9654 H   0  0  0  0  0  0  0  0  0  0  0  0
    1.6272    1.6677   -2.5708 H   0  0  0  0  0  0  0  0  0  0  0  0
    0.0705    1.2506   -1.8242 H   0  0  0  0  0  0  0  0  0  0  0  0
    5.0554    1.9025    2.3707 H   0  0  0  0  0  0  0  0  0  0  0  0
    4.5449    0.4892    1.4295 H   0  0  0  0  0  0  0  0  0  0  0  0
    3.3847    1.3382    2.5314 H   0  0  0  0  0  0  0  0  0  0  0  0
  1  2  2  0  0  0  0
  1  6  1  0  0  0  0
  1 19  1  0  0  0  0
  2  3  1  0  0  0  0
  2 20  1  0  0  0  0
  3  4  2  0  0  0  0
  3 21  1  0  0  0  0
  4  5  1  0  0  0  0
  4  7  1  0  0  0  0
  5  6  2  0  0  0  0
  5  9  1  0  0  0  0
  6 22  1  0  0  0  0
  7  8  1  0  0  0  0
  7 23  1  0  0  0  0
  8  9  2  0  0  0  0
  8 24  1  0  0  0  0
  9 11  1  0  0  0  0
 10 11  1  0  0  0  0
 10 12  1  0  0  0  0
 10 15  1  0  0  0  0
 10 25  1  1  0  0  0
 11 26  1  0  0  0  0
 11 27  1  0  0  0  0
 12 13  1  0  0  0  0
 12 14  1  0  0  0  0
 13 28  1  0  0  0  0
 13 29  1  0  0  0  0
 13 30  1  0  0  0  0
 14 31  1  0  0  0  0
 14 32  1  0  0  0  0
 14 33  1  0  0  0  0
 15 16  2  0  0  0  0
 15 17  1  0  0  0  0
 17 18  1  0  0  0  0
 18 34  1  0  0  0  0
 18 35  1  0  0  0  0
 18 36  1  0  0  0  0
M  END
