4-GBLD_168
 OpenBabel04201808233D
Structure written by MMmdl.
 43 46  0  0  0  0  0  0  0  0999 V2000
   -0.8999    2.6878    1.9212 C   0  0  0  0  0  0  0  0  0  0  0  0
   -1.3269    1.7295    0.8859 C   0  0  0  0  0  0  0  0  0  0  0  0
   -0.6578    0.7284    0.4142 N   0  0  0  0  0  0  0  0  0  0  0  0
    0.5857    0.6093    0.9794 N   0  0  0  0  0  0  0  0  0  0  0  0
    1.1236    1.4374    1.9594 C   0  0  0  0  0  0  0  0  0  0  0  0
    0.3247    2.5062    2.4288 C   0  0  0  0  0  0  0  0  0  0  0  0
    2.3420    1.0775    2.2928 N   0  0  0  0  0  0  0  0  0  0  0  0
    2.6228   -0.0224    1.5109 C   0  0  0  0  0  0  0  0  0  0  0  0
    1.5578   -0.3409    0.6723 C   0  0  0  0  0  0  0  0  0  0  0  0
   -2.6065    2.0763    0.4798 O   0  0  0  0  0  0  0  0  0  0  0  0
   -3.1651    1.2741   -0.5249 C   0  0  0  0  0  0  0  0  0  0  0  0
    3.9156   -0.6959    1.5805 C   0  0  0  0  0  0  0  0  0  0  0  0
    4.0727   -2.0549    1.2765 C   0  0  0  0  0  0  0  0  0  0  0  0
    5.3293   -2.6639    1.3576 C   0  0  0  0  0  0  0  0  0  0  0  0
    6.4429   -1.9234    1.7477 C   0  0  0  0  0  0  0  0  0  0  0  0
    6.3018   -0.5754    2.0657 C   0  0  0  0  0  0  0  0  0  0  0  0
    5.0459    0.0325    1.9852 C   0  0  0  0  0  0  0  0  0  0  0  0
    1.4787   -1.3148   -0.2519 O   0  0  0  0  0  0  0  0  0  0  0  0
    0.2567   -1.5160   -0.9531 C   0  0  0  0  0  0  0  0  0  0  0  0
   -2.8242    1.4997   -1.8566 C   0  0  0  0  0  0  0  0  0  0  0  0
   -3.4222    0.7234   -2.8442 C   0  0  0  0  0  0  0  0  0  0  0  0
   -4.3583   -0.2534   -2.4906 C   0  0  0  0  0  0  0  0  0  0  0  0
   -4.7097   -0.4611   -1.1511 C   0  0  0  0  0  0  0  0  0  0  0  0
   -4.1115    0.3151   -0.1592 C   0  0  0  0  0  0  0  0  0  0  0  0
   -5.6428   -1.4414   -0.9501 O   0  0  0  0  0  0  0  0  0  0  0  0
   -6.0331   -1.6888    0.3997 C   0  0  0  0  0  0  0  0  0  0  0  0
   -1.5603    3.4848    2.2333 H   0  0  0  0  0  0  0  0  0  0  0  0
    0.7191    3.1668    3.1923 H   0  0  0  0  0  0  0  0  0  0  0  0
    3.2219   -2.6668    0.9828 H   0  0  0  0  0  0  0  0  0  0  0  0
    5.4354   -3.7204    1.1173 H   0  0  0  0  0  0  0  0  0  0  0  0
    7.4200   -2.3985    1.8088 H   0  0  0  0  0  0  0  0  0  0  0  0
    7.1678    0.0062    2.3770 H   0  0  0  0  0  0  0  0  0  0  0  0
    4.9576    1.0890    2.2380 H   0  0  0  0  0  0  0  0  0  0  0  0
    0.3885   -2.3873   -1.6027 H   0  0  0  0  0  0  0  0  0  0  0  0
    0.0285   -0.6614   -1.5973 H   0  0  0  0  0  0  0  0  0  0  0  0
   -0.5641   -1.7426   -0.2655 H   0  0  0  0  0  0  0  0  0  0  0  0
   -2.1013    2.2656   -2.1238 H   0  0  0  0  0  0  0  0  0  0  0  0
   -3.1658    0.8768   -3.8906 H   0  0  0  0  0  0  0  0  0  0  0  0
   -4.8209   -0.8537   -3.2723 H   0  0  0  0  0  0  0  0  0  0  0  0
   -4.3552    0.2000    0.8919 H   0  0  0  0  0  0  0  0  0  0  0  0
   -6.7679   -2.4996    0.3914 H   0  0  0  0  0  0  0  0  0  0  0  0
   -6.5113   -0.8071    0.8380 H   0  0  0  0  0  0  0  0  0  0  0  0
   -5.1793   -2.0189    1.0007 H   0  0  0  0  0  0  0  0  0  0  0  0
  1  2  1  0  0  0  0
  1  6  2  0  0  0  0
  1 27  1  0  0  0  0
  2  3  2  0  0  0  0
  2 10  1  0  0  0  0
  3  4  1  0  0  0  0
  4  5  1  0  0  0  0
  4  9  1  0  0  0  0
  5  6  1  0  0  0  0
  5  7  2  0  0  0  0
  6 28  1  0  0  0  0
  7  8  1  0  0  0  0
  8  9  2  0  0  0  0
  8 12  1  0  0  0  0
  9 18  1  0  0  0  0
 10 11  1  0  0  0  0
 11 20  2  0  0  0  0
 11 24  1  0  0  0  0
 12 13  2  0  0  0  0
 12 17  1  0  0  0  0
 13 14  1  0  0  0  0
 13 29  1  0  0  0  0
 14 15  2  0  0  0  0
 14 30  1  0  0  0  0
 15 16  1  0  0  0  0
 15 31  1  0  0  0  0
 16 17  2  0  0  0  0
 16 32  1  0  0  0  0
 17 33  1  0  0  0  0
 18 19  1  0  0  0  0
 19 34  1  0  0  0  0
 19 35  1  0  0  0  0
 19 36  1  0  0  0  0
 20 21  1  0  0  0  0
 20 37  1  0  0  0  0
 21 22  2  0  0  0  0
 21 38  1  0  0  0  0
 22 23  1  0  0  0  0
 22 39  1  0  0  0  0
 23 24  2  0  0  0  0
 23 25  1  0  0  0  0
 24 40  1  0  0  0  0
 25 26  1  0  0  0  0
 26 41  1  0  0  0  0
 26 42  1  0  0  0  0
 26 43  1  0  0  0  0
M  END
