4-GBLD_190
 OpenBabel04201808233D
Structure written by MMmdl.
 46 49  0  0  0  0  0  0  0  0999 V2000
   -0.7422    1.7109    3.7518 C   0  0  0  0  0  0  0  0  0  0  0  0
   -1.0603    0.6000    2.8287 C   0  0  0  0  0  0  0  0  0  0  0  0
   -0.2210   -0.2199    2.2839 N   0  0  0  0  0  0  0  0  0  0  0  0
    1.0810    0.0225    2.6445 N   0  0  0  0  0  0  0  0  0  0  0  0
    1.5229    1.0299    3.4949 C   0  0  0  0  0  0  0  0  0  0  0  0
    0.5500    1.8908    4.0512 C   0  0  0  0  0  0  0  0  0  0  0  0
    2.8283    1.0092    3.6477 N   0  0  0  0  0  0  0  0  0  0  0  0
    3.2622   -0.0580    2.8925 C   0  0  0  0  0  0  0  0  0  0  0  0
    2.2086   -0.6870    2.2363 C   0  0  0  0  0  0  0  0  0  0  0  0
    4.6723   -0.4205    2.8154 C   0  0  0  0  0  0  0  0  0  0  0  0
    5.0902   -1.7498    2.6600 C   0  0  0  0  0  0  0  0  0  0  0  0
    6.4507   -2.0677    2.6036 C   0  0  0  0  0  0  0  0  0  0  0  0
    7.4089   -1.0616    2.7075 C   0  0  0  0  0  0  0  0  0  0  0  0
    7.0089    0.2624    2.8726 C   0  0  0  0  0  0  0  0  0  0  0  0
    5.6489    0.5805    2.9294 C   0  0  0  0  0  0  0  0  0  0  0  0
    2.2552   -1.7281    1.3870 O   0  0  0  0  0  0  0  0  0  0  0  0
    1.0454   -2.2565    0.8593 C   0  0  0  0  0  0  0  0  0  0  0  0
   -2.7698    0.4149    2.5050 S   0  0  0  0  0  0  0  0  0  0  0  0
   -2.7027    0.3510    0.6882 C   0  0  0  0  0  0  0  0  0  0  0  0
   -4.0872    0.2502    0.0909 C   0  0  0  0  0  0  0  0  0  0  0  0
   -4.5910   -0.9898   -0.3251 C   0  0  0  0  0  0  0  0  0  0  0  0
   -5.8705   -1.0825   -0.8702 C   0  0  0  0  0  0  0  0  0  0  0  0
   -6.6587    0.0616   -0.9967 C   0  0  0  0  0  0  0  0  0  0  0  0
   -6.1788    1.3052   -0.5796 C   0  0  0  0  0  0  0  0  0  0  0  0
   -4.8936    1.3965   -0.0396 C   0  0  0  0  0  0  0  0  0  0  0  0
   -7.0523    2.3438   -0.7527 O   0  0  0  0  0  0  0  0  0  0  0  0
   -6.6339    3.6219   -0.2764 C   0  0  0  0  0  0  0  0  0  0  0  0
   -1.5239    2.3404    4.1546 H   0  0  0  0  0  0  0  0  0  0  0  0
    0.8646    2.6850    4.7192 H   0  0  0  0  0  0  0  0  0  0  0  0
    4.3667   -2.5604    2.5940 H   0  0  0  0  0  0  0  0  0  0  0  0
    6.7606   -3.1044    2.4824 H   0  0  0  0  0  0  0  0  0  0  0  0
    8.4679   -1.3107    2.6647 H   0  0  0  0  0  0  0  0  0  0  0  0
    7.7555    1.0502    2.9586 H   0  0  0  0  0  0  0  0  0  0  0  0
    5.3562    1.6218    3.0600 H   0  0  0  0  0  0  0  0  0  0  0  0
    1.3071   -3.1100    0.2261 H   0  0  0  0  0  0  0  0  0  0  0  0
    0.5390   -1.5232    0.2244 H   0  0  0  0  0  0  0  0  0  0  0  0
    0.3939   -2.6290    1.6558 H   0  0  0  0  0  0  0  0  0  0  0  0
   -2.1004   -0.5071    0.3696 H   0  0  0  0  0  0  0  0  0  0  0  0
   -2.2064    1.2512    0.3074 H   0  0  0  0  0  0  0  0  0  0  0  0
   -3.9880   -1.8922   -0.2285 H   0  0  0  0  0  0  0  0  0  0  0  0
   -6.2558   -2.0473   -1.1960 H   0  0  0  0  0  0  0  0  0  0  0  0
   -7.6577   -0.0233   -1.4211 H   0  0  0  0  0  0  0  0  0  0  0  0
   -4.4888    2.3498    0.2924 H   0  0  0  0  0  0  0  0  0  0  0  0
   -7.4483    4.3287   -0.4623 H   0  0  0  0  0  0  0  0  0  0  0  0
   -5.7531    3.9753   -0.8223 H   0  0  0  0  0  0  0  0  0  0  0  0
   -6.4511    3.5993    0.8032 H   0  0  0  0  0  0  0  0  0  0  0  0
  1  2  1  0  0  0  0
  1  6  2  0  0  0  0
  1 28  1  0  0  0  0
  2  3  2  0  0  0  0
  2 18  1  0  0  0  0
  3  4  1  0  0  0  0
  4  5  1  0  0  0  0
  4  9  1  0  0  0  0
  5  6  1  0  0  0  0
  5  7  2  0  0  0  0
  6 29  1  0  0  0  0
  7  8  1  0  0  0  0
  8  9  2  0  0  0  0
  8 10  1  0  0  0  0
  9 16  1  0  0  0  0
 10 11  2  0  0  0  0
 10 15  1  0  0  0  0
 11 12  1  0  0  0  0
 11 30  1  0  0  0  0
 12 13  2  0  0  0  0
 12 31  1  0  0  0  0
 13 14  1  0  0  0  0
 13 32  1  0  0  0  0
 14 15  2  0  0  0  0
 14 33  1  0  0  0  0
 15 34  1  0  0  0  0
 16 17  1  0  0  0  0
 17 35  1  0  0  0  0
 17 36  1  0  0  0  0
 17 37  1  0  0  0  0
 18 19  1  0  0  0  0
 19 20  1  0  0  0  0
 19 38  1  0  0  0  0
 19 39  1  0  0  0  0
 20 21  2  0  0  0  0
 20 25  1  0  0  0  0
 21 22  1  0  0  0  0
 21 40  1  0  0  0  0
 22 23  2  0  0  0  0
 22 41  1  0  0  0  0
 23 24  1  0  0  0  0
 23 42  1  0  0  0  0
 24 25  2  0  0  0  0
 24 26  1  0  0  0  0
 25 43  1  0  0  0  0
 26 27  1  0  0  0  0
 27 44  1  0  0  0  0
 27 45  1  0  0  0  0
 27 46  1  0  0  0  0
M  END
