4-GBLD_219
 OpenBabel04201808233D
Structure written by MMmdl.
 44 47  0  0  0  0  0  0  0  0999 V2000
   -0.4201    2.0463    3.7506 C   0  0  0  0  0  0  0  0  0  0  0  0
   -0.7874    0.9668    2.8062 C   0  0  0  0  0  0  0  0  0  0  0  0
    0.0064    0.0779    2.3020 N   0  0  0  0  0  0  0  0  0  0  0  0
    1.3048    0.2101    2.7257 N   0  0  0  0  0  0  0  0  0  0  0  0
    1.7865    1.1751    3.6011 C   0  0  0  0  0  0  0  0  0  0  0  0
    0.8657    2.1141    4.1154 C   0  0  0  0  0  0  0  0  0  0  0  0
    3.0780    1.0517    3.8082 N   0  0  0  0  0  0  0  0  0  0  0  0
    3.4659   -0.0298    3.0481 C   0  0  0  0  0  0  0  0  0  0  0  0
    2.3927   -0.5779    2.3519 C   0  0  0  0  0  0  0  0  0  0  0  0
    4.8563   -0.4722    3.0084 C   0  0  0  0  0  0  0  0  0  0  0  0
    5.2105   -1.8097    2.7847 C   0  0  0  0  0  0  0  0  0  0  0  0
    6.5540   -2.1989    2.7697 C   0  0  0  0  0  0  0  0  0  0  0  0
    7.5593   -1.2566    2.9812 C   0  0  0  0  0  0  0  0  0  0  0  0
    7.2225    0.0744    3.2125 C   0  0  0  0  0  0  0  0  0  0  0  0
    5.8804    0.4626    3.2268 C   0  0  0  0  0  0  0  0  0  0  0  0
    2.3897   -1.5939    1.4719 O   0  0  0  0  0  0  0  0  0  0  0  0
    1.1522   -2.2062    1.1303 C   0  0  0  0  0  0  0  0  0  0  0  0
   -2.4923    0.9571    2.4014 S   0  0  0  0  0  0  0  0  0  0  0  0
   -2.4119    0.2349    0.7372 C   0  0  0  0  0  0  0  0  0  0  0  0
   -3.7656    0.2493    0.0631 C   0  0  0  0  0  0  0  0  0  0  0  0
   -4.6051   -0.8748    0.1243 C   0  0  0  0  0  0  0  0  0  0  0  0
   -5.8537   -0.8670   -0.5058 C   0  0  0  0  0  0  0  0  0  0  0  0
   -6.2726    0.2763   -1.1965 C   0  0  0  0  0  0  0  0  0  0  0  0
   -5.4515    1.4094   -1.2569 C   0  0  0  0  0  0  0  0  0  0  0  0
   -4.2041    1.3925   -0.6255 C   0  0  0  0  0  0  0  0  0  0  0  0
   -7.5790    0.2854   -1.8681 N   0  3  0  0  0  0  0  0  0  0  0  0
   -7.9436    1.3303   -2.4403 O   0  0  0  0  0  0  0  0  0  0  0  0
   -8.2672   -0.7522   -1.8390 O   0  5  0  0  0  0  0  0  0  0  0  0
   -1.1625    2.7415    4.1187 H   0  0  0  0  0  0  0  0  0  0  0  0
    1.2148    2.8792    4.8000 H   0  0  0  0  0  0  0  0  0  0  0  0
    4.4501   -2.5737    2.6318 H   0  0  0  0  0  0  0  0  0  0  0  0
    6.8153   -3.2424    2.5953 H   0  0  0  0  0  0  0  0  0  0  0  0
    8.6044   -1.5609    2.9657 H   0  0  0  0  0  0  0  0  0  0  0  0
    8.0034    0.8150    3.3820 H   0  0  0  0  0  0  0  0  0  0  0  0
    5.6384    1.5101    3.4067 H   0  0  0  0  0  0  0  0  0  0  0  0
    1.3775   -3.1114    0.5584 H   0  0  0  0  0  0  0  0  0  0  0  0
    0.5592   -1.5534    0.4829 H   0  0  0  0  0  0  0  0  0  0  0  0
    0.5969   -2.5087    2.0245 H   0  0  0  0  0  0  0  0  0  0  0  0
   -2.0451   -0.7961    0.7989 H   0  0  0  0  0  0  0  0  0  0  0  0
   -1.6974    0.7950    0.1228 H   0  0  0  0  0  0  0  0  0  0  0  0
   -4.2880   -1.7688    0.6619 H   0  0  0  0  0  0  0  0  0  0  0  0
   -6.4785   -1.7555   -0.4489 H   0  0  0  0  0  0  0  0  0  0  0  0
   -5.7613    2.3072   -1.7886 H   0  0  0  0  0  0  0  0  0  0  0  0
   -3.5718    2.2786   -0.6745 H   0  0  0  0  0  0  0  0  0  0  0  0
  1  2  1  0  0  0  0
  1  6  2  0  0  0  0
  1 29  1  0  0  0  0
  2  3  2  0  0  0  0
  2 18  1  0  0  0  0
  3  4  1  0  0  0  0
  4  5  1  0  0  0  0
  4  9  1  0  0  0  0
  5  6  1  0  0  0  0
  5  7  2  0  0  0  0
  6 30  1  0  0  0  0
  7  8  1  0  0  0  0
  8  9  2  0  0  0  0
  8 10  1  0  0  0  0
  9 16  1  0  0  0  0
 10 11  2  0  0  0  0
 10 15  1  0  0  0  0
 11 12  1  0  0  0  0
 11 31  1  0  0  0  0
 12 13  2  0  0  0  0
 12 32  1  0  0  0  0
 13 14  1  0  0  0  0
 13 33  1  0  0  0  0
 14 15  2  0  0  0  0
 14 34  1  0  0  0  0
 15 35  1  0  0  0  0
 16 17  1  0  0  0  0
 17 36  1  0  0  0  0
 17 37  1  0  0  0  0
 17 38  1  0  0  0  0
 18 19  1  0  0  0  0
 19 20  1  0  0  0  0
 19 39  1  0  0  0  0
 19 40  1  0  0  0  0
 20 21  2  0  0  0  0
 20 25  1  0  0  0  0
 21 22  1  0  0  0  0
 21 41  1  0  0  0  0
 22 23  2  0  0  0  0
 22 42  1  0  0  0  0
 23 24  1  0  0  0  0
 23 26  1  0  0  0  0
 24 25  2  0  0  0  0
 24 43  1  0  0  0  0
 25 44  1  0  0  0  0
 26 27  2  0  0  0  0
 26 28  1  0  0  0  0
M  CHG  2  26   1  28  -1
M  END
