Ro05-4318
 OpenBabel04201808233D
Structure written by MMmdl.
 35 37  0  0  0  0  0  0  0  0999 V2000
   -2.1301    2.4962   -0.1616 C   0  0  0  0  0  0  0  0  0  0  0  0
   -2.3771    1.1468    0.0637 C   0  0  0  0  0  0  0  0  0  0  0  0
   -1.2861    0.2928    0.2075 C   0  0  0  0  0  0  0  0  0  0  0  0
    0.0372    0.7812    0.1830 C   0  0  0  0  0  0  0  0  0  0  0  0
    0.2872    2.1608    0.0445 C   0  0  0  0  0  0  0  0  0  0  0  0
   -0.8223    2.9983   -0.1632 C   0  0  0  0  0  0  0  0  0  0  0  0
    1.1345   -0.2352    0.2381 C   0  0  0  0  0  0  0  0  0  0  0  0
    2.1788   -0.1427    0.9982 N   0  0  0  0  0  0  0  0  0  0  0  0
    2.2983    1.0702    1.8079 C   0  0  0  0  0  0  0  0  0  0  0  0
    2.6374    2.2350    0.8853 C   0  0  0  0  0  0  0  0  0  0  0  0
    1.5986    2.7396    0.0985 N   0  0  0  0  0  0  0  0  0  0  0  0
    1.0371   -1.4448   -0.6424 C   0  0  0  0  0  0  0  0  0  0  0  0
    3.7759    2.7202    0.8846 O   0  0  0  0  0  0  0  0  0  0  0  0
    0.5415   -1.3502   -1.9493 C   0  0  0  0  0  0  0  0  0  0  0  0
    0.4756   -2.4894   -2.7549 C   0  0  0  0  0  0  0  0  0  0  0  0
    0.9107   -3.7202   -2.2640 C   0  0  0  0  0  0  0  0  0  0  0  0
    1.4182   -3.8160   -0.9686 C   0  0  0  0  0  0  0  0  0  0  0  0
    1.4869   -2.6803   -0.1594 C   0  0  0  0  0  0  0  0  0  0  0  0
   -3.6642    0.6484    0.0183 N   0  0  0  0  0  0  0  0  0  0  0  0
    1.8457    3.9776   -0.6371 C   0  0  0  0  0  0  0  0  0  0  0  0
   -2.9576    3.1861   -0.3209 H   0  0  0  0  0  0  0  0  0  0  0  0
   -1.4681   -0.7732    0.3359 H   0  0  0  0  0  0  0  0  0  0  0  0
   -0.7073    4.0723   -0.2944 H   0  0  0  0  0  0  0  0  0  0  0  0
    3.1287    0.9389    2.5105 H   0  0  0  0  0  0  0  0  0  0  0  0
    1.4092    1.2776    2.4136 H   0  0  0  0  0  0  0  0  0  0  0  0
    0.2141   -0.3977   -2.3600 H   0  0  0  0  0  0  0  0  0  0  0  0
    0.0883   -2.4153   -3.7697 H   0  0  0  0  0  0  0  0  0  0  0  0
    0.8588   -4.6063   -2.8947 H   0  0  0  0  0  0  0  0  0  0  0  0
    1.7626   -4.7762   -0.5884 H   0  0  0  0  0  0  0  0  0  0  0  0
    1.8858   -2.7669    0.8494 H   0  0  0  0  0  0  0  0  0  0  0  0
   -3.8596   -0.3060    0.3110 H   0  0  0  0  0  0  0  0  0  0  0  0
   -4.4611    1.2808    0.0428 H   0  0  0  0  0  0  0  0  0  0  0  0
    2.9153    4.1258   -0.8135 H   0  0  0  0  0  0  0  0  0  0  0  0
    1.4806    4.8229   -0.0455 H   0  0  0  0  0  0  0  0  0  0  0  0
    1.3493    3.9458   -1.6122 H   0  0  0  0  0  0  0  0  0  0  0  0
  1  2  2  0  0  0  0
  1  6  1  0  0  0  0
  1 21  1  0  0  0  0
  2  3  1  0  0  0  0
  2 19  1  0  0  0  0
  3  4  2  0  0  0  0
  3 22  1  0  0  0  0
  4  5  1  0  0  0  0
  4  7  1  0  0  0  0
  5  6  2  0  0  0  0
  5 11  1  0  0  0  0
  6 23  1  0  0  0  0
  7  8  2  0  0  0  0
  7 12  1  0  0  0  0
  8  9  1  0  0  0  0
  9 10  1  0  0  0  0
  9 24  1  0  0  0  0
  9 25  1  0  0  0  0
 10 11  1  0  0  0  0
 10 13  2  0  0  0  0
 11 20  1  0  0  0  0
 12 14  2  0  0  0  0
 12 18  1  0  0  0  0
 14 15  1  0  0  0  0
 14 26  1  0  0  0  0
 15 16  2  0  0  0  0
 15 27  1  0  0  0  0
 16 17  1  0  0  0  0
 16 28  1  0  0  0  0
 17 18  2  0  0  0  0
 17 29  1  0  0  0  0
 18 30  1  0  0  0  0
 19 31  1  0  0  0  0
 19 32  1  0  0  0  0
 20 33  1  0  0  0  0
 20 34  1  0  0  0  0
 20 35  1  0  0  0  0
M  END
