4-GBLD_221
 OpenBabel04201808233D
Structure written by MMmdl.
 46 49  0  0  0  0  0  0  0  0999 V2000
   -0.7726    2.1127    0.5867 C   0  0  0  0  0  0  0  0  0  0  0  0
   -1.1225    0.7453    0.1720 C   0  0  0  0  0  0  0  0  0  0  0  0
   -0.3301   -0.2613    0.0091 N   0  0  0  0  0  0  0  0  0  0  0  0
    0.9790    0.0593    0.2620 N   0  0  0  0  0  0  0  0  0  0  0  0
    1.4617    1.2986    0.6699 C   0  0  0  0  0  0  0  0  0  0  0  0
    0.5232    2.3461    0.8271 C   0  0  0  0  0  0  0  0  0  0  0  0
    2.7639    1.2797    0.8500 N   0  0  0  0  0  0  0  0  0  0  0  0
    3.1509   -0.0142    0.5670 C   0  0  0  0  0  0  0  0  0  0  0  0
    2.0718   -0.7930    0.1662 C   0  0  0  0  0  0  0  0  0  0  0  0
    4.5453   -0.4333    0.6534 C   0  0  0  0  0  0  0  0  0  0  0  0
    4.9153   -1.7574    0.9288 C   0  0  0  0  0  0  0  0  0  0  0  0
    6.2649   -2.1170    1.0091 C   0  0  0  0  0  0  0  0  0  0  0  0
    7.2574   -1.1573    0.8200 C   0  0  0  0  0  0  0  0  0  0  0  0
    6.9044    0.1640    0.5554 C   0  0  0  0  0  0  0  0  0  0  0  0
    5.5566    0.5227    0.4745 C   0  0  0  0  0  0  0  0  0  0  0  0
    2.0393   -2.0849   -0.2013 O   0  0  0  0  0  0  0  0  0  0  0  0
    1.0453   -2.4867   -1.1401 C   0  0  0  0  0  0  0  0  0  0  0  0
   -2.4587    0.6736   -0.0278 O   0  0  0  0  0  0  0  0  0  0  0  0
   -2.9767   -0.6257   -0.3634 C   0  0  0  0  0  0  0  0  0  0  0  0
   -4.4710   -0.5337   -0.5712 C   0  0  0  0  0  0  0  0  0  0  0  0
   -5.0799   -1.2749   -1.5918 C   0  0  0  0  0  0  0  0  0  0  0  0
   -6.4622   -1.2311   -1.7670 C   0  0  0  0  0  0  0  0  0  0  0  0
   -7.2504   -0.4539   -0.9161 C   0  0  0  0  0  0  0  0  0  0  0  0
   -6.6648    0.2803    0.1176 C   0  0  0  0  0  0  0  0  0  0  0  0
   -5.2790    0.2341    0.2889 C   0  0  0  0  0  0  0  0  0  0  0  0
   -7.5436    0.9915    0.8887 O   0  0  0  0  0  0  0  0  0  0  0  0
   -6.9868    1.7548    1.9598 C   0  0  0  0  0  0  0  0  0  0  0  0
   -1.5420    2.8656    0.6884 H   0  0  0  0  0  0  0  0  0  0  0  0
    0.8656    3.3250    1.1445 H   0  0  0  0  0  0  0  0  0  0  0  0
    4.1665   -2.5278    1.0977 H   0  0  0  0  0  0  0  0  0  0  0  0
    6.5398   -3.1484    1.2241 H   0  0  0  0  0  0  0  0  0  0  0  0
    8.3078   -1.4387    0.8830 H   0  0  0  0  0  0  0  0  0  0  0  0
    7.6772    0.9170    0.4106 H   0  0  0  0  0  0  0  0  0  0  0  0
    5.3014    1.5606    0.2641 H   0  0  0  0  0  0  0  0  0  0  0  0
    1.3772   -3.4236   -1.5968 H   0  0  0  0  0  0  0  0  0  0  0  0
    0.9211   -1.7504   -1.9419 H   0  0  0  0  0  0  0  0  0  0  0  0
    0.0989   -2.6876   -0.6313 H   0  0  0  0  0  0  0  0  0  0  0  0
   -2.7793   -1.3266    0.4571 H   0  0  0  0  0  0  0  0  0  0  0  0
   -2.4907   -0.9794   -1.2811 H   0  0  0  0  0  0  0  0  0  0  0  0
   -4.4821   -1.8968   -2.2576 H   0  0  0  0  0  0  0  0  0  0  0  0
   -6.9267   -1.8110   -2.5636 H   0  0  0  0  0  0  0  0  0  0  0  0
   -8.3291   -0.4333   -1.0592 H   0  0  0  0  0  0  0  0  0  0  0  0
   -4.7950    0.7866    1.0914 H   0  0  0  0  0  0  0  0  0  0  0  0
   -7.8095    2.2716    2.4625 H   0  0  0  0  0  0  0  0  0  0  0  0
   -6.2947    2.5164    1.5846 H   0  0  0  0  0  0  0  0  0  0  0  0
   -6.5015    1.1030    2.6945 H   0  0  0  0  0  0  0  0  0  0  0  0
  1  2  1  0  0  0  0
  1  6  2  0  0  0  0
  1 28  1  0  0  0  0
  2  3  2  0  0  0  0
  2 18  1  0  0  0  0
  3  4  1  0  0  0  0
  4  5  1  0  0  0  0
  4  9  1  0  0  0  0
  5  6  1  0  0  0  0
  5  7  2  0  0  0  0
  6 29  1  0  0  0  0
  7  8  1  0  0  0  0
  8  9  2  0  0  0  0
  8 10  1  0  0  0  0
  9 16  1  0  0  0  0
 10 11  2  0  0  0  0
 10 15  1  0  0  0  0
 11 12  1  0  0  0  0
 11 30  1  0  0  0  0
 12 13  2  0  0  0  0
 12 31  1  0  0  0  0
 13 14  1  0  0  0  0
 13 32  1  0  0  0  0
 14 15  2  0  0  0  0
 14 33  1  0  0  0  0
 15 34  1  0  0  0  0
 16 17  1  0  0  0  0
 17 35  1  0  0  0  0
 17 36  1  0  0  0  0
 17 37  1  0  0  0  0
 18 19  1  0  0  0  0
 19 20  1  0  0  0  0
 19 38  1  0  0  0  0
 19 39  1  0  0  0  0
 20 21  2  0  0  0  0
 20 25  1  0  0  0  0
 21 22  1  0  0  0  0
 21 40  1  0  0  0  0
 22 23  2  0  0  0  0
 22 41  1  0  0  0  0
 23 24  1  0  0  0  0
 23 42  1  0  0  0  0
 24 25  2  0  0  0  0
 24 26  1  0  0  0  0
 25 43  1  0  0  0  0
 26 27  1  0  0  0  0
 27 44  1  0  0  0  0
 27 45  1  0  0  0  0
 27 46  1  0  0  0  0
M  END
