4-GBLD_230
 OpenBabel04201808233D
Structure written by MMmdl.
 44 47  0  0  0  0  0  0  0  0999 V2000
   -1.1713    1.7190    3.7975 C   0  0  0  0  0  0  0  0  0  0  0  0
   -1.5040    0.6205    2.8640 C   0  0  0  0  0  0  0  0  0  0  0  0
   -0.6772   -0.2094    2.3162 N   0  0  0  0  0  0  0  0  0  0  0  0
    0.6274    0.0110    2.6791 N   0  0  0  0  0  0  0  0  0  0  0  0
    1.0844    1.0061    3.5366 C   0  0  0  0  0  0  0  0  0  0  0  0
    0.1235    1.8763    4.0994 C   0  0  0  0  0  0  0  0  0  0  0  0
    2.3893    0.9650    3.6909 N   0  0  0  0  0  0  0  0  0  0  0  0
    2.8072   -0.1084    2.9345 C   0  0  0  0  0  0  0  0  0  0  0  0
    1.7448   -0.7154    2.2704 C   0  0  0  0  0  0  0  0  0  0  0  0
    4.2100   -0.4995    2.8703 C   0  0  0  0  0  0  0  0  0  0  0  0
    4.6024   -1.8397    2.7463 C   0  0  0  0  0  0  0  0  0  0  0  0
    5.9573   -2.1872    2.7126 C   0  0  0  0  0  0  0  0  0  0  0  0
    6.9348   -1.1987    2.8013 C   0  0  0  0  0  0  0  0  0  0  0  0
    6.5601    0.1366    2.9305 C   0  0  0  0  0  0  0  0  0  0  0  0
    5.2058    0.4834    2.9680 C   0  0  0  0  0  0  0  0  0  0  0  0
    1.7759   -1.7585    1.4215 O   0  0  0  0  0  0  0  0  0  0  0  0
    0.5644   -2.2226    0.8383 C   0  0  0  0  0  0  0  0  0  0  0  0
   -3.2145    0.4679    2.5326 S   0  0  0  0  0  0  0  0  0  0  0  0
   -3.1370    0.4548    0.7151 C   0  0  0  0  0  0  0  0  0  0  0  0
   -4.5171    0.4074    0.0967 C   0  0  0  0  0  0  0  0  0  0  0  0
   -5.0430   -0.8530   -0.2556 C   0  0  0  0  0  0  0  0  0  0  0  0
   -6.2968   -0.9663   -0.8525 C   0  0  0  0  0  0  0  0  0  0  0  0
   -7.0402    0.1782   -1.1118 C   0  0  0  0  0  0  0  0  0  0  0  0
   -6.5336    1.4309   -0.7598 C   0  0  0  0  0  0  0  0  0  0  0  0
   -5.2904    1.5636   -0.1246 C   0  0  0  0  0  0  0  0  0  0  0  0
   -4.8157    2.8396    0.1443 N   0  0  0  0  0  0  0  0  0  0  0  0
   -1.9447    2.3563    4.2058 H   0  0  0  0  0  0  0  0  0  0  0  0
    0.4492    2.6599    4.7742 H   0  0  0  0  0  0  0  0  0  0  0  0
    3.8630   -2.6366    2.6907 H   0  0  0  0  0  0  0  0  0  0  0  0
    6.2472   -3.2333    2.6234 H   0  0  0  0  0  0  0  0  0  0  0  0
    7.9885   -1.4710    2.7755 H   0  0  0  0  0  0  0  0  0  0  0  0
    7.3229    0.9104    3.0056 H   0  0  0  0  0  0  0  0  0  0  0  0
    4.9347    1.5336    3.0730 H   0  0  0  0  0  0  0  0  0  0  0  0
    0.8142   -3.0602    0.1790 H   0  0  0  0  0  0  0  0  0  0  0  0
    0.1013   -1.4488    0.2170 H   0  0  0  0  0  0  0  0  0  0  0  0
   -0.1236   -2.6009    1.6019 H   0  0  0  0  0  0  0  0  0  0  0  0
   -2.5594   -0.4164    0.3826 H   0  0  0  0  0  0  0  0  0  0  0  0
   -2.5924    1.3357    0.3577 H   0  0  0  0  0  0  0  0  0  0  0  0
   -4.4649   -1.7585   -0.0724 H   0  0  0  0  0  0  0  0  0  0  0  0
   -6.6866   -1.9461   -1.1224 H   0  0  0  0  0  0  0  0  0  0  0  0
   -8.0157    0.1013   -1.5881 H   0  0  0  0  0  0  0  0  0  0  0  0
   -7.1299    2.3159   -0.9788 H   0  0  0  0  0  0  0  0  0  0  0  0
   -5.4506    3.6327    0.0727 H   0  0  0  0  0  0  0  0  0  0  0  0
   -4.0436    2.9773    0.7890 H   0  0  0  0  0  0  0  0  0  0  0  0
  1  2  1  0  0  0  0
  1  6  2  0  0  0  0
  1 27  1  0  0  0  0
  2  3  2  0  0  0  0
  2 18  1  0  0  0  0
  3  4  1  0  0  0  0
  4  5  1  0  0  0  0
  4  9  1  0  0  0  0
  5  6  1  0  0  0  0
  5  7  2  0  0  0  0
  6 28  1  0  0  0  0
  7  8  1  0  0  0  0
  8  9  2  0  0  0  0
  8 10  1  0  0  0  0
  9 16  1  0  0  0  0
 10 11  2  0  0  0  0
 10 15  1  0  0  0  0
 11 12  1  0  0  0  0
 11 29  1  0  0  0  0
 12 13  2  0  0  0  0
 12 30  1  0  0  0  0
 13 14  1  0  0  0  0
 13 31  1  0  0  0  0
 14 15  2  0  0  0  0
 14 32  1  0  0  0  0
 15 33  1  0  0  0  0
 16 17  1  0  0  0  0
 17 34  1  0  0  0  0
 17 35  1  0  0  0  0
 17 36  1  0  0  0  0
 18 19  1  0  0  0  0
 19 20  1  0  0  0  0
 19 37  1  0  0  0  0
 19 38  1  0  0  0  0
 20 21  2  0  0  0  0
 20 25  1  0  0  0  0
 21 22  1  0  0  0  0
 21 39  1  0  0  0  0
 22 23  2  0  0  0  0
 22 40  1  0  0  0  0
 23 24  1  0  0  0  0
 23 41  1  0  0  0  0
 24 25  2  0  0  0  0
 24 42  1  0  0  0  0
 25 26  1  0  0  0  0
 26 43  1  0  0  0  0
 26 44  1  0  0  0  0
M  END
