4-GBLD_266
 OpenBabel04201808233D
Structure written by MMmdl.
 46 49  0  0  0  0  0  0  0  0999 V2000
   -0.7408    1.7790    3.7393 C   0  0  0  0  0  0  0  0  0  0  0  0
   -1.0614    0.6571    2.8302 C   0  0  0  0  0  0  0  0  0  0  0  0
   -0.2243   -0.1723    2.2967 N   0  0  0  0  0  0  0  0  0  0  0  0
    1.0779    0.0709    2.6542 N   0  0  0  0  0  0  0  0  0  0  0  0
    1.5227    1.0875    3.4920 C   0  0  0  0  0  0  0  0  0  0  0  0
    0.5519    1.9589    4.0368 C   0  0  0  0  0  0  0  0  0  0  0  0
    2.8282    1.0645    3.6450 N   0  0  0  0  0  0  0  0  0  0  0  0
    3.2594   -0.0122    2.9024 C   0  0  0  0  0  0  0  0  0  0  0  0
    2.2037   -0.6470    2.2551 C   0  0  0  0  0  0  0  0  0  0  0  0
    4.6689   -0.3743    2.8232 C   0  0  0  0  0  0  0  0  0  0  0  0
    5.0867   -1.7007    2.6604 C   0  0  0  0  0  0  0  0  0  0  0  0
    6.4450   -2.0004    2.5976 C   0  0  0  0  0  0  0  0  0  0  0  0
    7.4084   -1.0043    2.6992 C   0  0  0  0  0  0  0  0  0  0  0  0
    7.0078    0.3173    2.8724 C   0  0  0  0  0  0  0  0  0  0  0  0
    5.6459    0.6293    2.9376 C   0  0  0  0  0  0  0  0  0  0  0  0
    2.2474   -1.7013    1.4218 O   0  0  0  0  0  0  0  0  0  0  0  0
    1.0386   -2.2118    0.8735 C   0  0  0  0  0  0  0  0  0  0  0  0
   -2.7714    0.4746    2.5063 S   0  0  0  0  0  0  0  0  0  0  0  0
   -2.7012    0.4089    0.6900 C   0  0  0  0  0  0  0  0  0  0  0  0
   -4.0841    0.3067    0.0892 C   0  0  0  0  0  0  0  0  0  0  0  0
   -4.5809   -0.9323   -0.3380 C   0  0  0  0  0  0  0  0  0  0  0  0
   -5.8606   -1.0278   -0.8820 C   0  0  0  0  0  0  0  0  0  0  0  0
   -6.6553    0.1131   -0.9983 C   0  0  0  0  0  0  0  0  0  0  0  0
   -6.1814    1.3562   -0.5725 C   0  0  0  0  0  0  0  0  0  0  0  0
   -4.8964    1.4498   -0.0328 C   0  0  0  0  0  0  0  0  0  0  0  0
    6.8304   -3.2742    2.4400 F   0  0  0  0  0  0  0  0  0  0  0  0
   -7.0607    2.3914   -0.7368 O   0  0  0  0  0  0  0  0  0  0  0  0
   -6.6389    3.6732   -0.2723 C   0  0  0  0  0  0  0  0  0  0  0  0
   -1.5218    2.4159    4.1331 H   0  0  0  0  0  0  0  0  0  0  0  0
    0.8678    2.7616    4.6939 H   0  0  0  0  0  0  0  0  0  0  0  0
    4.3752   -2.5182    2.5921 H   0  0  0  0  0  0  0  0  0  0  0  0
    8.4627   -1.2608    2.6476 H   0  0  0  0  0  0  0  0  0  0  0  0
    7.7518    1.1073    2.9576 H   0  0  0  0  0  0  0  0  0  0  0  0
    5.3503    1.6695    3.0731 H   0  0  0  0  0  0  0  0  0  0  0  0
    1.2996   -3.0692    0.2457 H   0  0  0  0  0  0  0  0  0  0  0  0
    0.5538   -1.4707    0.2307 H   0  0  0  0  0  0  0  0  0  0  0  0
    0.3689   -2.5749    1.6591 H   0  0  0  0  0  0  0  0  0  0  0  0
   -2.0976   -0.4494    0.3745 H   0  0  0  0  0  0  0  0  0  0  0  0
   -2.2039    1.3083    0.3086 H   0  0  0  0  0  0  0  0  0  0  0  0
   -3.9731   -1.8321   -0.2490 H   0  0  0  0  0  0  0  0  0  0  0  0
   -6.2413   -1.9922   -1.2145 H   0  0  0  0  0  0  0  0  0  0  0  0
   -7.6541    0.0262   -1.4222 H   0  0  0  0  0  0  0  0  0  0  0  0
   -4.4970    2.4022    0.3081 H   0  0  0  0  0  0  0  0  0  0  0  0
   -7.4541    4.3791   -0.4574 H   0  0  0  0  0  0  0  0  0  0  0  0
   -5.7622    4.0226   -0.8270 H   0  0  0  0  0  0  0  0  0  0  0  0
   -6.4483    3.6582    0.8059 H   0  0  0  0  0  0  0  0  0  0  0  0
  1  2  1  0  0  0  0
  1  6  2  0  0  0  0
  1 29  1  0  0  0  0
  2  3  2  0  0  0  0
  2 18  1  0  0  0  0
  3  4  1  0  0  0  0
  4  5  1  0  0  0  0
  4  9  1  0  0  0  0
  5  6  1  0  0  0  0
  5  7  2  0  0  0  0
  6 30  1  0  0  0  0
  7  8  1  0  0  0  0
  8  9  2  0  0  0  0
  8 10  1  0  0  0  0
  9 16  1  0  0  0  0
 10 11  2  0  0  0  0
 10 15  1  0  0  0  0
 11 12  1  0  0  0  0
 11 31  1  0  0  0  0
 12 13  2  0  0  0  0
 12 26  1  0  0  0  0
 13 14  1  0  0  0  0
 13 32  1  0  0  0  0
 14 15  2  0  0  0  0
 14 33  1  0  0  0  0
 15 34  1  0  0  0  0
 16 17  1  0  0  0  0
 17 35  1  0  0  0  0
 17 36  1  0  0  0  0
 17 37  1  0  0  0  0
 18 19  1  0  0  0  0
 19 20  1  0  0  0  0
 19 38  1  0  0  0  0
 19 39  1  0  0  0  0
 20 21  2  0  0  0  0
 20 25  1  0  0  0  0
 21 22  1  0  0  0  0
 21 40  1  0  0  0  0
 22 23  2  0  0  0  0
 22 41  1  0  0  0  0
 23 24  1  0  0  0  0
 23 42  1  0  0  0  0
 24 25  2  0  0  0  0
 24 27  1  0  0  0  0
 25 43  1  0  0  0  0
 27 28  1  0  0  0  0
 28 44  1  0  0  0  0
 28 45  1  0  0  0  0
 28 46  1  0  0  0  0
M  END
