4-GBLD_268
 OpenBabel04201808233D
Structure written by MMmdl.
 43 46  0  0  0  0  0  0  0  0999 V2000
   -1.1355    3.1253    1.6261 C   0  0  0  0  0  0  0  0  0  0  0  0
   -1.6550    2.0697    0.7354 C   0  0  0  0  0  0  0  0  0  0  0  0
   -1.0552    0.9827    0.3716 N   0  0  0  0  0  0  0  0  0  0  0  0
    0.1953    0.8598    0.9148 N   0  0  0  0  0  0  0  0  0  0  0  0
    0.8171    1.7717    1.7610 C   0  0  0  0  0  0  0  0  0  0  0  0
    0.0957    2.9360    2.1162 C   0  0  0  0  0  0  0  0  0  0  0  0
    2.0287    1.3847    2.0930 N   0  0  0  0  0  0  0  0  0  0  0  0
    2.2090    0.1757    1.4573 C   0  0  0  0  0  0  0  0  0  0  0  0
    1.0929   -0.1844    0.7103 C   0  0  0  0  0  0  0  0  0  0  0  0
   -2.9266    2.4346    0.3245 O   0  0  0  0  0  0  0  0  0  0  0  0
   -3.5945    1.4510   -0.4220 C   0  0  0  0  0  0  0  0  0  0  0  0
    3.4524   -0.5753    1.5770 C   0  0  0  0  0  0  0  0  0  0  0  0
    3.4825   -1.9747    1.5249 C   0  0  0  0  0  0  0  0  0  0  0  0
    4.6929   -2.6496    1.6581 C   0  0  0  0  0  0  0  0  0  0  0  0
    5.8852   -1.9618    1.8483 C   0  0  0  0  0  0  0  0  0  0  0  0
    5.8688   -0.5709    1.9080 C   0  0  0  0  0  0  0  0  0  0  0  0
    4.6585    0.1173    1.7772 C   0  0  0  0  0  0  0  0  0  0  0  0
    0.9160   -1.2604   -0.0757 O   0  0  0  0  0  0  0  0  0  0  0  0
   -0.3970   -1.5845   -0.5187 C   0  0  0  0  0  0  0  0  0  0  0  0
   -3.5241    1.5203   -1.8146 C   0  0  0  0  0  0  0  0  0  0  0  0
   -4.1884    0.5616   -2.5733 C   0  0  0  0  0  0  0  0  0  0  0  0
   -4.9229   -0.4409   -1.9368 C   0  0  0  0  0  0  0  0  0  0  0  0
   -5.0020   -0.4901   -0.5379 C   0  0  0  0  0  0  0  0  0  0  0  0
   -4.3420    0.4641    0.2374 C   0  0  0  0  0  0  0  0  0  0  0  0
    4.7088   -3.9885    1.6065 F   0  0  0  0  0  0  0  0  0  0  0  0
   -4.3536    0.5269    1.6049 O   0  0  0  0  0  0  0  0  0  0  0  0
   -5.1168   -0.4618    2.2928 C   0  0  0  0  0  0  0  0  0  0  0  0
   -1.7406    3.9915    1.8547 H   0  0  0  0  0  0  0  0  0  0  0  0
    0.5526    3.6620    2.7796 H   0  0  0  0  0  0  0  0  0  0  0  0
    2.5769   -2.5602    1.3959 H   0  0  0  0  0  0  0  0  0  0  0  0
    6.8180   -2.5085    1.9534 H   0  0  0  0  0  0  0  0  0  0  0  0
    6.7950   -0.0187    2.0573 H   0  0  0  0  0  0  0  0  0  0  0  0
    4.6638    1.2058    1.8298 H   0  0  0  0  0  0  0  0  0  0  0  0
   -0.3574   -2.5850   -0.9622 H   0  0  0  0  0  0  0  0  0  0  0  0
   -0.7253   -0.8938   -1.3015 H   0  0  0  0  0  0  0  0  0  0  0  0
   -1.1052   -1.6232    0.3147 H   0  0  0  0  0  0  0  0  0  0  0  0
   -2.9493    2.3027   -2.3031 H   0  0  0  0  0  0  0  0  0  0  0  0
   -4.1356    0.5912   -3.6604 H   0  0  0  0  0  0  0  0  0  0  0  0
   -5.4420   -1.1902   -2.5331 H   0  0  0  0  0  0  0  0  0  0  0  0
   -5.5889   -1.2893   -0.0931 H   0  0  0  0  0  0  0  0  0  0  0  0
   -5.0310   -0.2609    3.3655 H   0  0  0  0  0  0  0  0  0  0  0  0
   -4.7186   -1.4648    2.1089 H   0  0  0  0  0  0  0  0  0  0  0  0
   -6.1772   -0.3984    2.0269 H   0  0  0  0  0  0  0  0  0  0  0  0
  1  2  1  0  0  0  0
  1  6  2  0  0  0  0
  1 28  1  0  0  0  0
  2  3  2  0  0  0  0
  2 10  1  0  0  0  0
  3  4  1  0  0  0  0
  4  5  1  0  0  0  0
  4  9  1  0  0  0  0
  5  6  1  0  0  0  0
  5  7  2  0  0  0  0
  6 29  1  0  0  0  0
  7  8  1  0  0  0  0
  8  9  2  0  0  0  0
  8 12  1  0  0  0  0
  9 18  1  0  0  0  0
 10 11  1  0  0  0  0
 11 20  2  0  0  0  0
 11 24  1  0  0  0  0
 12 13  2  0  0  0  0
 12 17  1  0  0  0  0
 13 14  1  0  0  0  0
 13 30  1  0  0  0  0
 14 15  2  0  0  0  0
 14 25  1  0  0  0  0
 15 16  1  0  0  0  0
 15 31  1  0  0  0  0
 16 17  2  0  0  0  0
 16 32  1  0  0  0  0
 17 33  1  0  0  0  0
 18 19  1  0  0  0  0
 19 34  1  0  0  0  0
 19 35  1  0  0  0  0
 19 36  1  0  0  0  0
 20 21  1  0  0  0  0
 20 37  1  0  0  0  0
 21 22  2  0  0  0  0
 21 38  1  0  0  0  0
 22 23  1  0  0  0  0
 22 39  1  0  0  0  0
 23 24  2  0  0  0  0
 23 40  1  0  0  0  0
 24 26  1  0  0  0  0
 26 27  1  0  0  0  0
 27 41  1  0  0  0  0
 27 42  1  0  0  0  0
 27 43  1  0  0  0  0
M  END
