4-GBLD_274
 OpenBabel04201808233D
Structure written by MMmdl.
 47 50  0  0  0  0  0  0  0  0999 V2000
   -0.4833    2.3040   -0.2202 C   0  0  0  0  0  0  0  0  0  0  0  0
   -1.0642    0.9331   -0.0850 C   0  0  0  0  0  0  0  0  0  0  0  0
   -0.3372   -0.1233    0.1786 N   0  0  0  0  0  0  0  0  0  0  0  0
    1.0052    0.1137    0.3190 N   0  0  0  0  0  0  0  0  0  0  0  0
    1.6383    1.3430    0.2260 C   0  0  0  0  0  0  0  0  0  0  0  0
    0.8345    2.4639   -0.0615 C   0  0  0  0  0  0  0  0  0  0  0  0
    2.9332    1.2514    0.4340 N   0  0  0  0  0  0  0  0  0  0  0  0
    3.1634   -0.0836    0.6838 C   0  0  0  0  0  0  0  0  0  0  0  0
    1.9937   -0.8307    0.5892 C   0  0  0  0  0  0  0  0  0  0  0  0
    4.5018   -0.5899    0.9630 C   0  0  0  0  0  0  0  0  0  0  0  0
    4.7209   -1.7156    1.7722 C   0  0  0  0  0  0  0  0  0  0  0  0
    6.0196   -2.1701    2.0228 C   0  0  0  0  0  0  0  0  0  0  0  0
    7.1020   -1.4973    1.4702 C   0  0  0  0  0  0  0  0  0  0  0  0
    6.9123   -0.3754    0.6748 C   0  0  0  0  0  0  0  0  0  0  0  0
    5.6145    0.0792    0.4247 C   0  0  0  0  0  0  0  0  0  0  0  0
    1.8252   -2.1559    0.7378 O   0  0  0  0  0  0  0  0  0  0  0  0
    0.6324   -2.7559    0.2447 C   0  0  0  0  0  0  0  0  0  0  0  0
   -2.4026    0.7002   -0.2316 N   0  0  0  0  0  0  0  0  0  0  0  0
   -3.4313    1.6638   -0.5449 C   0  0  0  0  0  0  0  0  0  0  0  0
   -4.7735    0.9742   -0.6298 C   0  0  0  0  0  0  0  0  0  0  0  0
   -5.2152    0.4312   -1.8445 C   0  0  0  0  0  0  0  0  0  0  0  0
   -6.4437   -0.2225   -1.9172 C   0  0  0  0  0  0  0  0  0  0  0  0
   -7.2359   -0.3446   -0.7755 C   0  0  0  0  0  0  0  0  0  0  0  0
   -6.8084    0.1799    0.4469 C   0  0  0  0  0  0  0  0  0  0  0  0
   -5.5759    0.8334    0.5174 C   0  0  0  0  0  0  0  0  0  0  0  0
   -7.6760   -0.0129    1.4869 O   0  0  0  0  0  0  0  0  0  0  0  0
   -7.2961    0.5297    2.7506 C   0  0  0  0  0  0  0  0  0  0  0  0
    8.3452   -1.9346    1.7107 F   0  0  0  0  0  0  0  0  0  0  0  0
   -1.1320    3.1411   -0.4405 H   0  0  0  0  0  0  0  0  0  0  0  0
    1.2956    3.4413   -0.1486 H   0  0  0  0  0  0  0  0  0  0  0  0
    3.8897   -2.2489    2.2293 H   0  0  0  0  0  0  0  0  0  0  0  0
    6.1857   -3.0423    2.6490 H   0  0  0  0  0  0  0  0  0  0  0  0
    7.7683    0.1428    0.2522 H   0  0  0  0  0  0  0  0  0  0  0  0
    5.4770    0.9607   -0.2007 H   0  0  0  0  0  0  0  0  0  0  0  0
    0.7809   -3.8403    0.2528 H   0  0  0  0  0  0  0  0  0  0  0  0
    0.4294   -2.4594   -0.7896 H   0  0  0  0  0  0  0  0  0  0  0  0
   -0.2125   -2.5377    0.9043 H   0  0  0  0  0  0  0  0  0  0  0  0
   -2.7062   -0.2639   -0.1223 H   0  0  0  0  0  0  0  0  0  0  0  0
   -3.2142    2.1593   -1.4989 H   0  0  0  0  0  0  0  0  0  0  0  0
   -3.4695    2.4462    0.2224 H   0  0  0  0  0  0  0  0  0  0  0  0
   -4.6007    0.5146   -2.7403 H   0  0  0  0  0  0  0  0  0  0  0  0
   -6.7843   -0.6399   -2.8631 H   0  0  0  0  0  0  0  0  0  0  0  0
   -8.1940   -0.8573   -0.8434 H   0  0  0  0  0  0  0  0  0  0  0  0
   -5.2077    1.2444    1.4545 H   0  0  0  0  0  0  0  0  0  0  0  0
   -8.0960    0.3055    3.4628 H   0  0  0  0  0  0  0  0  0  0  0  0
   -7.1925    1.6184    2.6962 H   0  0  0  0  0  0  0  0  0  0  0  0
   -6.3785    0.0599    3.1197 H   0  0  0  0  0  0  0  0  0  0  0  0
  1  2  1  0  0  0  0
  1  6  2  0  0  0  0
  1 29  1  0  0  0  0
  2  3  2  0  0  0  0
  2 18  1  0  0  0  0
  3  4  1  0  0  0  0
  4  5  1  0  0  0  0
  4  9  1  0  0  0  0
  5  6  1  0  0  0  0
  5  7  2  0  0  0  0
  6 30  1  0  0  0  0
  7  8  1  0  0  0  0
  8  9  2  0  0  0  0
  8 10  1  0  0  0  0
  9 16  1  0  0  0  0
 10 11  2  0  0  0  0
 10 15  1  0  0  0  0
 11 12  1  0  0  0  0
 11 31  1  0  0  0  0
 12 13  2  0  0  0  0
 12 32  1  0  0  0  0
 13 14  1  0  0  0  0
 13 28  1  0  0  0  0
 14 15  2  0  0  0  0
 14 33  1  0  0  0  0
 15 34  1  0  0  0  0
 16 17  1  0  0  0  0
 17 35  1  0  0  0  0
 17 36  1  0  0  0  0
 17 37  1  0  0  0  0
 18 19  1  0  0  0  0
 18 38  1  0  0  0  0
 19 20  1  0  0  0  0
 19 39  1  0  0  0  0
 19 40  1  0  0  0  0
 20 21  2  0  0  0  0
 20 25  1  0  0  0  0
 21 22  1  0  0  0  0
 21 41  1  0  0  0  0
 22 23  2  0  0  0  0
 22 42  1  0  0  0  0
 23 24  1  0  0  0  0
 23 43  1  0  0  0  0
 24 25  2  0  0  0  0
 24 26  1  0  0  0  0
 25 44  1  0  0  0  0
 26 27  1  0  0  0  0
 27 45  1  0  0  0  0
 27 46  1  0  0  0  0
 27 47  1  0  0  0  0
M  END
