4-GBLD_307
 OpenBabel04201808233D
Structure written by MMmdl.
 49 52  0  0  0  0  0  0  0  0999 V2000
   -0.3734    2.7239   -0.5227 C   0  0  0  0  0  0  0  0  0  0  0  0
   -0.9670    1.3980   -0.1684 C   0  0  0  0  0  0  0  0  0  0  0  0
   -0.2444    0.3767    0.2177 N   0  0  0  0  0  0  0  0  0  0  0  0
    1.1050    0.6071    0.2699 N   0  0  0  0  0  0  0  0  0  0  0  0
    1.7511    1.7976   -0.0214 C   0  0  0  0  0  0  0  0  0  0  0  0
    0.9518    2.8805   -0.4377 C   0  0  0  0  0  0  0  0  0  0  0  0
    3.0514    1.7126    0.1557 N   0  0  0  0  0  0  0  0  0  0  0  0
    3.2742    0.4174    0.5684 C   0  0  0  0  0  0  0  0  0  0  0  0
    2.0883   -0.3043    0.6461 C   0  0  0  0  0  0  0  0  0  0  0  0
    4.6129   -0.0676    0.8842 C   0  0  0  0  0  0  0  0  0  0  0  0
    4.9768   -1.4120    0.7193 C   0  0  0  0  0  0  0  0  0  0  0  0
    6.2794   -1.8311    1.0325 C   0  0  0  0  0  0  0  0  0  0  0  0
    7.2300   -0.9179    1.5038 C   0  0  0  0  0  0  0  0  0  0  0  0
    6.8752    0.4214    1.6575 C   0  0  0  0  0  0  0  0  0  0  0  0
    5.5787    0.8416    1.3472 C   0  0  0  0  0  0  0  0  0  0  0  0
    1.8898   -1.5690    1.0541 O   0  0  0  0  0  0  0  0  0  0  0  0
    0.7338   -2.2548    0.5821 C   0  0  0  0  0  0  0  0  0  0  0  0
   -2.3133    1.1723   -0.2297 N   0  0  0  0  0  0  0  0  0  0  0  0
   -3.3405    2.1033   -0.6326 C   0  0  0  0  0  0  0  0  0  0  0  0
   -4.6888    1.4208   -0.6165 C   0  0  0  0  0  0  0  0  0  0  0  0
   -5.1222    0.6867   -1.7296 C   0  0  0  0  0  0  0  0  0  0  0  0
   -6.3570    0.0416   -1.7093 C   0  0  0  0  0  0  0  0  0  0  0  0
   -7.1641    0.1199   -0.5741 C   0  0  0  0  0  0  0  0  0  0  0  0
   -6.7459    0.8389    0.5488 C   0  0  0  0  0  0  0  0  0  0  0  0
   -5.5062    1.4824    0.5269 C   0  0  0  0  0  0  0  0  0  0  0  0
   -7.6296    0.8331    1.5931 O   0  0  0  0  0  0  0  0  0  0  0  0
   -7.2681    1.5930    2.7454 C   0  0  0  0  0  0  0  0  0  0  0  0
    6.6501   -3.2419    0.8608 N   0  3  0  0  0  0  0  0  0  0  0  0
    7.8248   -3.5789    1.1028 O   0  0  0  0  0  0  0  0  0  0  0  0
    5.7739   -4.0417    0.4811 O   0  5  0  0  0  0  0  0  0  0  0  0
   -1.0188    3.5326   -0.8377 H   0  0  0  0  0  0  0  0  0  0  0  0
    1.4220    3.8263   -0.6827 H   0  0  0  0  0  0  0  0  0  0  0  0
    4.2550   -2.1290    0.3359 H   0  0  0  0  0  0  0  0  0  0  0  0
    8.2430   -1.2277    1.7508 H   0  0  0  0  0  0  0  0  0  0  0  0
    7.6074    1.1412    2.0193 H   0  0  0  0  0  0  0  0  0  0  0  0
    5.3246    1.8939    1.4752 H   0  0  0  0  0  0  0  0  0  0  0  0
    0.8967   -3.3254    0.7410 H   0  0  0  0  0  0  0  0  0  0  0  0
    0.5791   -2.0995   -0.4909 H   0  0  0  0  0  0  0  0  0  0  0  0
   -0.1475   -1.9679    1.1627 H   0  0  0  0  0  0  0  0  0  0  0  0
   -2.6262    0.2408    0.0314 H   0  0  0  0  0  0  0  0  0  0  0  0
   -3.1408    2.4837   -1.6416 H   0  0  0  0  0  0  0  0  0  0  0  0
   -3.3554    2.9686    0.0407 H   0  0  0  0  0  0  0  0  0  0  0  0
   -4.4956    0.6140   -2.6180 H   0  0  0  0  0  0  0  0  0  0  0  0
   -6.6912   -0.5244   -2.5769 H   0  0  0  0  0  0  0  0  0  0  0  0
   -8.1272   -0.3876   -0.5687 H   0  0  0  0  0  0  0  0  0  0  0  0
   -5.1451    2.0409    1.3874 H   0  0  0  0  0  0  0  0  0  0  0  0
   -8.0806    1.5013    3.4726 H   0  0  0  0  0  0  0  0  0  0  0  0
   -7.1589    2.6543    2.4988 H   0  0  0  0  0  0  0  0  0  0  0  0
   -6.3589    1.1958    3.2084 H   0  0  0  0  0  0  0  0  0  0  0  0
  1  2  1  0  0  0  0
  1  6  2  0  0  0  0
  1 31  1  0  0  0  0
  2  3  2  0  0  0  0
  2 18  1  0  0  0  0
  3  4  1  0  0  0  0
  4  5  1  0  0  0  0
  4  9  1  0  0  0  0
  5  6  1  0  0  0  0
  5  7  2  0  0  0  0
  6 32  1  0  0  0  0
  7  8  1  0  0  0  0
  8  9  2  0  0  0  0
  8 10  1  0  0  0  0
  9 16  1  0  0  0  0
 10 11  2  0  0  0  0
 10 15  1  0  0  0  0
 11 12  1  0  0  0  0
 11 33  1  0  0  0  0
 12 13  2  0  0  0  0
 12 28  1  0  0  0  0
 13 14  1  0  0  0  0
 13 34  1  0  0  0  0
 14 15  2  0  0  0  0
 14 35  1  0  0  0  0
 15 36  1  0  0  0  0
 16 17  1  0  0  0  0
 17 37  1  0  0  0  0
 17 38  1  0  0  0  0
 17 39  1  0  0  0  0
 18 19  1  0  0  0  0
 18 40  1  0  0  0  0
 19 20  1  0  0  0  0
 19 41  1  0  0  0  0
 19 42  1  0  0  0  0
 20 21  2  0  0  0  0
 20 25  1  0  0  0  0
 21 22  1  0  0  0  0
 21 43  1  0  0  0  0
 22 23  2  0  0  0  0
 22 44  1  0  0  0  0
 23 24  1  0  0  0  0
 23 45  1  0  0  0  0
 24 25  2  0  0  0  0
 24 26  1  0  0  0  0
 25 46  1  0  0  0  0
 26 27  1  0  0  0  0
 27 47  1  0  0  0  0
 27 48  1  0  0  0  0
 27 49  1  0  0  0  0
 28 29  2  0  0  0  0
 28 30  1  0  0  0  0
M  CHG  2  28   1  30  -1
M  END
