4-GBLD_313
 OpenBabel04201808233D
Structure written by MMmdl.
 49 52  0  0  0  0  0  0  0  0999 V2000
    0.2195    2.6169   -0.1299 C   0  0  0  0  0  0  0  0  0  0  0  0
   -0.3631    1.2572    0.0866 C   0  0  0  0  0  0  0  0  0  0  0  0
    0.3662    0.2120    0.3864 N   0  0  0  0  0  0  0  0  0  0  0  0
    1.7120    0.4502    0.4867 N   0  0  0  0  0  0  0  0  0  0  0  0
    2.3475    1.6700    0.3177 C   0  0  0  0  0  0  0  0  0  0  0  0
    1.5414    2.7784   -0.0090 C   0  0  0  0  0  0  0  0  0  0  0  0
    3.6456    1.5841    0.5080 N   0  0  0  0  0  0  0  0  0  0  0  0
    3.8788    0.2587    0.8040 C   0  0  0  0  0  0  0  0  0  0  0  0
    2.7006   -0.4809    0.7991 C   0  0  0  0  0  0  0  0  0  0  0  0
    5.2186   -0.2365    1.0977 C   0  0  0  0  0  0  0  0  0  0  0  0
    5.6110   -1.5515    0.7979 C   0  0  0  0  0  0  0  0  0  0  0  0
    6.8988   -2.0131    1.0947 C   0  0  0  0  0  0  0  0  0  0  0  0
    7.8210   -1.1235    1.6478 C   0  0  0  0  0  0  0  0  0  0  0  0
    7.4545    0.1900    1.9439 C   0  0  0  0  0  0  0  0  0  0  0  0
    6.1593    0.6303    1.6707 C   0  0  0  0  0  0  0  0  0  0  0  0
    2.5183   -1.7808    1.0874 O   0  0  0  0  0  0  0  0  0  0  0  0
    1.3250   -2.4176    0.6429 C   0  0  0  0  0  0  0  0  0  0  0  0
   -1.7055    1.0233   -0.0184 N   0  0  0  0  0  0  0  0  0  0  0  0
   -2.7411    1.9802   -0.3298 C   0  0  0  0  0  0  0  0  0  0  0  0
   -4.0874    1.2960   -0.3439 C   0  0  0  0  0  0  0  0  0  0  0  0
   -4.6073    0.7683   -1.5322 C   0  0  0  0  0  0  0  0  0  0  0  0
   -5.8434    0.1219   -1.5330 C   0  0  0  0  0  0  0  0  0  0  0  0
   -6.5706   -0.0131   -0.3471 C   0  0  0  0  0  0  0  0  0  0  0  0
   -6.0615    0.4949    0.8478 C   0  0  0  0  0  0  0  0  0  0  0  0
   -4.8219    1.1435    0.8432 C   0  0  0  0  0  0  0  0  0  0  0  0
    7.2875   -3.2913    0.7352 N   0  0  0  0  0  0  0  0  0  0  0  0
   -6.6662    0.4233    2.0729 O   0  0  0  0  0  0  0  0  0  0  0  0
   -7.9303   -0.2365    2.1268 C   0  0  0  0  0  0  0  0  0  0  0  0
   -0.4303    3.4450   -0.3782 H   0  0  0  0  0  0  0  0  0  0  0  0
    2.0038    3.7480   -0.1560 H   0  0  0  0  0  0  0  0  0  0  0  0
    4.9113   -2.2323    0.3171 H   0  0  0  0  0  0  0  0  0  0  0  0
    8.8399   -1.4470    1.8542 H   0  0  0  0  0  0  0  0  0  0  0  0
    8.1809    0.8721    2.3820 H   0  0  0  0  0  0  0  0  0  0  0  0
    5.8906    1.6595    1.9063 H   0  0  0  0  0  0  0  0  0  0  0  0
    1.4705   -3.4977    0.7425 H   0  0  0  0  0  0  0  0  0  0  0  0
    1.1242   -2.2078   -0.4129 H   0  0  0  0  0  0  0  0  0  0  0  0
    0.4792   -2.1428    1.2798 H   0  0  0  0  0  0  0  0  0  0  0  0
   -2.0100    0.0660    0.1398 H   0  0  0  0  0  0  0  0  0  0  0  0
   -2.5535    2.4409   -1.3070 H   0  0  0  0  0  0  0  0  0  0  0  0
   -2.7512    2.7885    0.4110 H   0  0  0  0  0  0  0  0  0  0  0  0
   -4.0509    0.8572   -2.4648 H   0  0  0  0  0  0  0  0  0  0  0  0
   -6.2427   -0.2824   -2.4620 H   0  0  0  0  0  0  0  0  0  0  0  0
   -7.5284   -0.5243   -0.3948 H   0  0  0  0  0  0  0  0  0  0  0  0
   -4.4206    1.5342    1.7781 H   0  0  0  0  0  0  0  0  0  0  0  0
    8.1722   -3.6703    1.0653 H   0  0  0  0  0  0  0  0  0  0  0  0
    6.5933   -3.9823    0.4599 H   0  0  0  0  0  0  0  0  0  0  0  0
   -8.2726   -0.2142    3.1659 H   0  0  0  0  0  0  0  0  0  0  0  0
   -7.8394   -1.2858    1.8275 H   0  0  0  0  0  0  0  0  0  0  0  0
   -8.6737    0.2887    1.5184 H   0  0  0  0  0  0  0  0  0  0  0  0
  1  2  1  0  0  0  0
  1  6  2  0  0  0  0
  1 29  1  0  0  0  0
  2  3  2  0  0  0  0
  2 18  1  0  0  0  0
  3  4  1  0  0  0  0
  4  5  1  0  0  0  0
  4  9  1  0  0  0  0
  5  6  1  0  0  0  0
  5  7  2  0  0  0  0
  6 30  1  0  0  0  0
  7  8  1  0  0  0  0
  8  9  2  0  0  0  0
  8 10  1  0  0  0  0
  9 16  1  0  0  0  0
 10 11  2  0  0  0  0
 10 15  1  0  0  0  0
 11 12  1  0  0  0  0
 11 31  1  0  0  0  0
 12 13  2  0  0  0  0
 12 26  1  0  0  0  0
 13 14  1  0  0  0  0
 13 32  1  0  0  0  0
 14 15  2  0  0  0  0
 14 33  1  0  0  0  0
 15 34  1  0  0  0  0
 16 17  1  0  0  0  0
 17 35  1  0  0  0  0
 17 36  1  0  0  0  0
 17 37  1  0  0  0  0
 18 19  1  0  0  0  0
 18 38  1  0  0  0  0
 19 20  1  0  0  0  0
 19 39  1  0  0  0  0
 19 40  1  0  0  0  0
 20 21  2  0  0  0  0
 20 25  1  0  0  0  0
 21 22  1  0  0  0  0
 21 41  1  0  0  0  0
 22 23  2  0  0  0  0
 22 42  1  0  0  0  0
 23 24  1  0  0  0  0
 23 43  1  0  0  0  0
 24 25  2  0  0  0  0
 24 27  1  0  0  0  0
 25 44  1  0  0  0  0
 26 45  1  0  0  0  0
 26 46  1  0  0  0  0
 27 28  1  0  0  0  0
 28 47  1  0  0  0  0
 28 48  1  0  0  0  0
 28 49  1  0  0  0  0
M  END
