Ro05-4619
 OpenBabel04201808233D
Structure written by MMmdl.
 32 34  0  0  0  0  0  0  0  0999 V2000
   -2.0940    2.4569   -0.2665 C   0  0  0  0  0  0  0  0  0  0  0  0
   -2.3423    1.1002   -0.0763 C   0  0  0  0  0  0  0  0  0  0  0  0
   -1.2562    0.2463    0.1261 C   0  0  0  0  0  0  0  0  0  0  0  0
    0.0610    0.7403    0.2107 C   0  0  0  0  0  0  0  0  0  0  0  0
    0.2864    2.1226    0.1099 C   0  0  0  0  0  0  0  0  0  0  0  0
   -0.7955    2.9656   -0.1713 C   0  0  0  0  0  0  0  0  0  0  0  0
    1.1832   -0.2514    0.2560 C   0  0  0  0  0  0  0  0  0  0  0  0
    2.2835   -0.1319    0.9245 N   0  0  0  0  0  0  0  0  0  0  0  0
    2.4444    1.0456    1.7744 C   0  0  0  0  0  0  0  0  0  0  0  0
    2.6341    2.2856    0.9178 C   0  0  0  0  0  0  0  0  0  0  0  0
    1.5378    2.7508    0.2408 N   0  0  0  0  0  0  0  0  0  0  0  0
    1.0525   -1.4701   -0.5913 C   0  0  0  0  0  0  0  0  0  0  0  0
    3.7040    2.9024    0.8796 O   0  0  0  0  0  0  0  0  0  0  0  0
    1.5043   -2.6877   -0.0623 C   0  0  0  0  0  0  0  0  0  0  0  0
    1.3870   -3.8578   -0.8130 C   0  0  0  0  0  0  0  0  0  0  0  0
    0.8192   -3.8159   -2.0860 C   0  0  0  0  0  0  0  0  0  0  0  0
    0.3677   -2.6035   -2.6136 C   0  0  0  0  0  0  0  0  0  0  0  0
    0.4806   -1.4259   -1.8689 C   0  0  0  0  0  0  0  0  0  0  0  0
   -3.6194    0.5927   -0.2238 N   0  0  0  0  0  0  0  0  0  0  0  0
   -0.0525    0.0472   -2.5984 Cl  0  0  0  0  0  0  0  0  0  0  0  0
   -2.9138    3.1414   -0.4788 H   0  0  0  0  0  0  0  0  0  0  0  0
   -1.4467   -0.8216    0.2114 H   0  0  0  0  0  0  0  0  0  0  0  0
   -0.6480    4.0376   -0.2945 H   0  0  0  0  0  0  0  0  0  0  0  0
    3.3437    0.9133    2.3857 H   0  0  0  0  0  0  0  0  0  0  0  0
    1.6076    1.1766    2.4702 H   0  0  0  0  0  0  0  0  0  0  0  0
    1.6384    3.6893   -0.1362 H   0  0  0  0  0  0  0  0  0  0  0  0
    1.9392   -2.7334    0.9342 H   0  0  0  0  0  0  0  0  0  0  0  0
    1.7363   -4.8044   -0.4037 H   0  0  0  0  0  0  0  0  0  0  0  0
    0.7286   -4.7296   -2.6712 H   0  0  0  0  0  0  0  0  0  0  0  0
   -0.0670   -2.5869   -3.6111 H   0  0  0  0  0  0  0  0  0  0  0  0
   -3.8276   -0.3655    0.0475 H   0  0  0  0  0  0  0  0  0  0  0  0
   -4.4203    1.2204   -0.2381 H   0  0  0  0  0  0  0  0  0  0  0  0
  1  2  2  0  0  0  0
  1  6  1  0  0  0  0
  1 21  1  0  0  0  0
  2  3  1  0  0  0  0
  2 19  1  0  0  0  0
  3  4  2  0  0  0  0
  3 22  1  0  0  0  0
  4  5  1  0  0  0  0
  4  7  1  0  0  0  0
  5  6  2  0  0  0  0
  5 11  1  0  0  0  0
  6 23  1  0  0  0  0
  7  8  2  0  0  0  0
  7 12  1  0  0  0  0
  8  9  1  0  0  0  0
  9 10  1  0  0  0  0
  9 24  1  0  0  0  0
  9 25  1  0  0  0  0
 10 11  1  0  0  0  0
 10 13  2  0  0  0  0
 11 26  1  0  0  0  0
 12 14  2  0  0  0  0
 12 18  1  0  0  0  0
 14 15  1  0  0  0  0
 14 27  1  0  0  0  0
 15 16  2  0  0  0  0
 15 28  1  0  0  0  0
 16 17  1  0  0  0  0
 16 29  1  0  0  0  0
 17 18  2  0  0  0  0
 17 30  1  0  0  0  0
 18 20  1  0  0  0  0
 19 31  1  0  0  0  0
 19 32  1  0  0  0  0
M  END
