2-41b
 OpenBabel04201808233D
Structure written by MMmdl.
 16 16  0  0  0  0  0  0  0  0999 V2000
   -1.8508    1.2264    0.0418 C   0  0  0  0  0  0  0  0  0  0  0  0
   -1.8401   -0.1589    0.0333 C   0  0  0  0  0  0  0  0  0  0  0  0
   -0.7081   -0.9015    0.0257 N   0  0  0  0  0  0  0  0  0  0  0  0
    0.4694   -0.2196    0.0268 C   0  0  0  0  0  0  0  0  0  0  0  0
    0.5515    1.1677    0.0351 C   0  0  0  0  0  0  0  0  0  0  0  0
   -0.6332    1.8987    0.0427 C   0  0  0  0  0  0  0  0  0  0  0  0
    1.7192   -1.0398    0.0184 C   0  0  0  0  0  0  0  0  0  0  0  0
    2.8347   -0.5129    0.0188 O   0  0  0  0  0  0  0  0  0  0  0  0
    1.5570   -2.5377    0.0094 C   0  0  0  0  0  0  0  0  0  0  0  0
   -2.7905    1.7706    0.0477 H   0  0  0  0  0  0  0  0  0  0  0  0
   -2.7731   -0.7185    0.0324 H   0  0  0  0  0  0  0  0  0  0  0  0
    1.5106    1.6757    0.0357 H   0  0  0  0  0  0  0  0  0  0  0  0
   -0.6069    2.9862    0.0494 H   0  0  0  0  0  0  0  0  0  0  0  0
    2.5454   -3.0075    0.0027 H   0  0  0  0  0  0  0  0  0  0  0  0
    1.0221   -2.8539   -0.8900 H   0  0  0  0  0  0  0  0  0  0  0  0
    1.0287   -2.8653    0.9087 H   0  0  0  0  0  0  0  0  0  0  0  0
  1  2  2  0  0  0  0
  1  6  1  0  0  0  0
  1 10  1  0  0  0  0
  2  3  1  0  0  0  0
  2 11  1  0  0  0  0
  3  4  2  0  0  0  0
  4  5  1  0  0  0  0
  4  7  1  0  0  0  0
  5  6  2  0  0  0  0
  5 12  1  0  0  0  0
  6 13  1  0  0  0  0
  7  8  2  0  0  0  0
  7  9  1  0  0  0  0
  9 14  1  0  0  0  0
  9 15  1  0  0  0  0
  9 16  1  0  0  0  0
M  END
