3-5a
 OpenBabel04201808233D
Structure written by MMmdl.
 21 22  0  0  0  0  0  0  0  0999 V2000
   -0.7386    0.7340    0.6233 C   0  0  0  0  0  0  0  0  0  0  0  0
   -0.8882   -0.5978    0.3289 C   0  0  0  0  0  0  0  0  0  0  0  0
    0.1808   -1.6156    0.2833 C   0  0  0  0  0  0  0  0  0  0  0  0
    1.3793   -1.1054    0.9824 N   0  0  0  0  0  0  0  0  0  0  0  0
    1.7128    0.3268    0.6432 C   0  0  2  0  0  0  0  0  0  0  0  0
    0.5718    1.3220    0.9938 C   0  0  0  0  0  0  0  0  0  0  0  0
   -1.9339    1.3958    0.5494 N   0  0  0  0  0  0  0  0  0  0  0  0
   -2.8055    0.4648    0.2069 C   0  0  0  0  0  0  0  0  0  0  0  0
   -2.2164   -0.7678    0.0602 N   0  0  0  0  0  0  0  0  0  0  0  0
    2.1826    0.4685   -0.8171 C   0  0  0  0  0  0  0  0  0  0  0  0
    2.4102   -0.4426   -1.6046 O   0  0  0  0  0  0  0  0  0  0  0  0
    2.4313    1.7494   -1.1712 O   0  0  0  0  0  0  0  0  0  0  0  0
    0.4168   -1.8647   -0.7567 H   0  0  0  0  0  0  0  0  0  0  0  0
   -0.1447   -2.5370    0.7773 H   0  0  0  0  0  0  0  0  0  0  0  0
    2.1729   -1.6877    0.6928 H   0  0  0  0  0  0  0  0  0  0  0  0
    2.5890    0.5908    1.2494 H   0  0  0  0  0  0  0  0  0  0  0  0
    0.5720    1.4991    2.0764 H   0  0  0  0  0  0  0  0  0  0  0  0
    0.6999    2.2908    0.5013 H   0  0  0  0  0  0  0  0  0  0  0  0
   -3.8682    0.6038    0.0482 H   0  0  0  0  0  0  0  0  0  0  0  0
   -2.6910   -1.6253   -0.2006 H   0  0  0  0  0  0  0  0  0  0  0  0
    2.7674    1.7119   -2.0992 H   0  0  0  0  0  0  0  0  0  0  0  0
  1  2  2  0  0  0  0
  1  6  1  0  0  0  0
  1  7  1  0  0  0  0
  2  3  1  0  0  0  0
  2  9  1  0  0  0  0
  3  4  1  0  0  0  0
  3 13  1  0  0  0  0
  3 14  1  0  0  0  0
  4  5  1  0  0  0  0
  4 15  1  0  0  0  0
  5  6  1  0  0  0  0
  5 10  1  0  0  0  0
  5 16  1  1  0  0  0
  6 17  1  0  0  0  0
  6 18  1  0  0  0  0
  7  8  2  0  0  0  0
  8  9  1  0  0  0  0
  8 19  1  0  0  0  0
  9 20  1  0  0  0  0
 10 11  2  0  0  0  0
 10 12  1  0  0  0  0
 12 21  1  0  0  0  0
M  END
