3-7a
 OpenBabel04201808233D
Structure written by MMmdl.
 31 33  0  0  0  0  0  0  0  0999 V2000
   -1.1275    2.3807    1.0831 C   0  0  0  0  0  0  0  0  0  0  0  0
   -1.1208    1.0083    1.0230 C   0  0  0  0  0  0  0  0  0  0  0  0
    0.0801    0.1377    0.8696 C   0  0  2  0  0  0  0  0  0  0  0  0
    1.2213    0.9485    0.3744 N   0  0  0  0  0  0  0  0  0  0  0  0
    1.3427    2.2551    1.1125 C   0  0  2  0  0  0  0  0  0  0  0  0
    0.1103    3.1847    0.9542 C   0  0  0  0  0  0  0  0  0  0  0  0
   -2.3935    2.8659    1.2659 N   0  0  0  0  0  0  0  0  0  0  0  0
   -3.1530    1.7878    1.3298 C   0  0  0  0  0  0  0  0  0  0  0  0
   -2.4237    0.6316    1.1981 N   0  0  0  0  0  0  0  0  0  0  0  0
    2.5762    3.0142    0.6167 C   0  0  0  0  0  0  0  0  0  0  0  0
    3.1918    2.8261   -0.4256 O   0  0  0  0  0  0  0  0  0  0  0  0
    2.9573    3.9876    1.4770 O   0  0  0  0  0  0  0  0  0  0  0  0
   -0.1451   -1.0685   -0.0329 C   0  0  0  0  0  0  0  0  0  0  0  0
   -0.6312   -0.9300   -1.3459 C   0  0  0  0  0  0  0  0  0  0  0  0
   -0.8281   -2.0497   -2.1572 C   0  0  0  0  0  0  0  0  0  0  0  0
   -0.5388   -3.3230   -1.6719 C   0  0  0  0  0  0  0  0  0  0  0  0
   -0.0506   -3.4786   -0.3763 C   0  0  0  0  0  0  0  0  0  0  0  0
    0.1468   -2.3602    0.4371 C   0  0  0  0  0  0  0  0  0  0  0  0
    0.3484   -0.2234    1.8718 H   0  0  0  0  0  0  0  0  0  0  0  0
    1.0376    1.1746   -0.6067 H   0  0  0  0  0  0  0  0  0  0  0  0
    1.5140    2.0140    2.1703 H   0  0  0  0  0  0  0  0  0  0  0  0
    0.1316    3.9720    1.7161 H   0  0  0  0  0  0  0  0  0  0  0  0
    0.1187    3.6747   -0.0272 H   0  0  0  0  0  0  0  0  0  0  0  0
   -4.2270    1.7638    1.4711 H   0  0  0  0  0  0  0  0  0  0  0  0
   -2.7944   -0.3120    1.2204 H   0  0  0  0  0  0  0  0  0  0  0  0
    3.7545    4.4065    1.0715 H   0  0  0  0  0  0  0  0  0  0  0  0
   -0.8639    0.0570   -1.7444 H   0  0  0  0  0  0  0  0  0  0  0  0
   -1.2078   -1.9265   -3.1701 H   0  0  0  0  0  0  0  0  0  0  0  0
   -0.6921   -4.1952   -2.3048 H   0  0  0  0  0  0  0  0  0  0  0  0
    0.1787   -4.4731    0.0028 H   0  0  0  0  0  0  0  0  0  0  0  0
    0.5330   -2.5048    1.4458 H   0  0  0  0  0  0  0  0  0  0  0  0
  1  2  2  0  0  0  0
  1  6  1  0  0  0  0
  1  7  1  0  0  0  0
  2  3  1  0  0  0  0
  2  9  1  0  0  0  0
  3  4  1  0  0  0  0
  3 13  1  0  0  0  0
  3 19  1  1  0  0  0
  4  5  1  0  0  0  0
  4 20  1  0  0  0  0
  5  6  1  0  0  0  0
  5 10  1  0  0  0  0
  5 21  1  1  0  0  0
  6 22  1  0  0  0  0
  6 23  1  0  0  0  0
  7  8  2  0  0  0  0
  8  9  1  0  0  0  0
  8 24  1  0  0  0  0
  9 25  1  0  0  0  0
 10 11  2  0  0  0  0
 10 12  1  0  0  0  0
 12 26  1  0  0  0  0
 13 14  2  0  0  0  0
 13 18  1  0  0  0  0
 14 15  1  0  0  0  0
 14 27  1  0  0  0  0
 15 16  2  0  0  0  0
 15 28  1  0  0  0  0
 16 17  1  0  0  0  0
 16 29  1  0  0  0  0
 17 18  2  0  0  0  0
 17 30  1  0  0  0  0
 18 31  1  0  0  0  0
M  END
