3-6a
 OpenBabel04201808233D
Structure written by MMmdl.
 20 21  0  0  0  0  0  0  0  0999 V2000
   -1.3237    0.9990    1.3356 C   0  0  0  0  0  0  0  0  0  0  0  0
   -1.3491   -0.3135    0.8831 C   0  0  0  0  0  0  0  0  0  0  0  0
   -0.2083   -0.9890    0.4860 C   0  0  0  0  0  0  0  0  0  0  0  0
    0.9770   -0.3319    0.5426 N   0  0  0  0  0  0  0  0  0  0  0  0
    1.0042    0.9629    0.9772 C   0  0  0  0  0  0  0  0  0  0  0  0
   -0.1098    1.6808    1.3976 C   0  0  0  0  0  0  0  0  0  0  0  0
   -2.5905    1.4249    1.6681 N   0  0  0  0  0  0  0  0  0  0  0  0
   -3.3738    0.3951    1.4229 C   0  0  0  0  0  0  0  0  0  0  0  0
   -2.6701   -0.6784    0.9472 N   0  0  0  0  0  0  0  0  0  0  0  0
    2.3443    1.6326    1.0528 C   0  0  0  0  0  0  0  0  0  0  0  0
    2.5822    2.4884    1.9042 O   0  0  0  0  0  0  0  0  0  0  0  0
    3.3215    1.2414    0.1886 O   0  0  0  0  0  0  0  0  0  0  0  0
    2.9956    0.7455   -1.1237 C   0  0  0  0  0  0  0  0  0  0  0  0
   -0.2074   -2.0142    0.1333 H   0  0  0  0  0  0  0  0  0  0  0  0
   -0.0466    2.7024    1.7487 H   0  0  0  0  0  0  0  0  0  0  0  0
   -4.4472    0.3522    1.5635 H   0  0  0  0  0  0  0  0  0  0  0  0
   -3.0624   -1.5764    0.6922 H   0  0  0  0  0  0  0  0  0  0  0  0
    3.7821    1.0819   -1.8054 H   0  0  0  0  0  0  0  0  0  0  0  0
    2.0430    1.1417   -1.4875 H   0  0  0  0  0  0  0  0  0  0  0  0
    2.9983   -0.3474   -1.1130 H   0  0  0  0  0  0  0  0  0  0  0  0
  1  2  2  0  0  0  0
  1  6  1  0  0  0  0
  1  7  1  0  0  0  0
  2  3  1  0  0  0  0
  2  9  1  0  0  0  0
  3  4  2  0  0  0  0
  3 14  1  0  0  0  0
  4  5  1  0  0  0  0
  5  6  2  0  0  0  0
  5 10  1  0  0  0  0
  6 15  1  0  0  0  0
  7  8  2  0  0  0  0
  8  9  1  0  0  0  0
  8 16  1  0  0  0  0
  9 17  1  0  0  0  0
 10 11  2  0  0  0  0
 10 12  1  0  0  0  0
 12 13  1  0  0  0  0
 13 18  1  0  0  0  0
 13 19  1  0  0  0  0
 13 20  1  0  0  0  0
M  END
