3-6b
 OpenBabel04201808233D
Structure written by MMmdl.
 30 32  0  0  0  0  0  0  0  0999 V2000
   -1.4488    3.0863    1.0748 C   0  0  0  0  0  0  0  0  0  0  0  0
   -1.4344    1.6980    1.0043 C   0  0  0  0  0  0  0  0  0  0  0  0
   -0.2515    0.9595    0.9934 C   0  0  0  0  0  0  0  0  0  0  0  0
    0.9213    1.6549    1.0311 N   0  0  0  0  0  0  0  0  0  0  0  0
    0.9039    3.0159    1.0964 C   0  0  0  0  0  0  0  0  0  0  0  0
   -0.2479    3.7892    1.1347 C   0  0  0  0  0  0  0  0  0  0  0  0
   -2.7390    3.5680    1.0734 N   0  0  0  0  0  0  0  0  0  0  0  0
   -3.5026    2.5002    0.9879 C   0  0  0  0  0  0  0  0  0  0  0  0
   -2.7632    1.3509    0.9362 N   0  0  0  0  0  0  0  0  0  0  0  0
    2.2265    3.7168    1.1920 C   0  0  0  0  0  0  0  0  0  0  0  0
    2.3372    4.7855    1.7919 O   0  0  0  0  0  0  0  0  0  0  0  0
    3.3259    3.1287    0.6449 O   0  0  0  0  0  0  0  0  0  0  0  0
    3.2162    2.2622   -0.4997 C   0  0  0  0  0  0  0  0  0  0  0  0
   -0.1795   -0.5013    0.9294 C   0  0  0  0  0  0  0  0  0  0  0  0
   -0.9621   -1.3193    1.7630 C   0  0  0  0  0  0  0  0  0  0  0  0
   -0.8813   -2.7136    1.6914 C   0  0  0  0  0  0  0  0  0  0  0  0
   -0.0109   -3.3171    0.7879 C   0  0  0  0  0  0  0  0  0  0  0  0
    0.7821   -2.5283   -0.0404 C   0  0  0  0  0  0  0  0  0  0  0  0
    0.6998   -1.1346    0.0332 C   0  0  0  0  0  0  0  0  0  0  0  0
   -0.2231    4.8693    1.1982 H   0  0  0  0  0  0  0  0  0  0  0  0
   -4.5854    2.4811    0.9559 H   0  0  0  0  0  0  0  0  0  0  0  0
   -3.1387    0.4142    0.8565 H   0  0  0  0  0  0  0  0  0  0  0  0
    4.1039    2.4227   -1.1183 H   0  0  0  0  0  0  0  0  0  0  0  0
    2.3366    2.4923   -1.1079 H   0  0  0  0  0  0  0  0  0  0  0  0
    3.2157    1.2207   -0.1691 H   0  0  0  0  0  0  0  0  0  0  0  0
   -1.6368   -0.8778    2.4959 H   0  0  0  0  0  0  0  0  0  0  0  0
   -1.4966   -3.3273    2.3473 H   0  0  0  0  0  0  0  0  0  0  0  0
    0.0524   -4.4024    0.7326 H   0  0  0  0  0  0  0  0  0  0  0  0
    1.4669   -2.9953   -0.7461 H   0  0  0  0  0  0  0  0  0  0  0  0
    1.3280   -0.5377   -0.6274 H   0  0  0  0  0  0  0  0  0  0  0  0
  1  2  2  0  0  0  0
  1  6  1  0  0  0  0
  1  7  1  0  0  0  0
  2  3  1  0  0  0  0
  2  9  1  0  0  0  0
  3  4  2  0  0  0  0
  3 14  1  0  0  0  0
  4  5  1  0  0  0  0
  5  6  2  0  0  0  0
  5 10  1  0  0  0  0
  6 20  1  0  0  0  0
  7  8  2  0  0  0  0
  8  9  1  0  0  0  0
  8 21  1  0  0  0  0
  9 22  1  0  0  0  0
 10 11  2  0  0  0  0
 10 12  1  0  0  0  0
 12 13  1  0  0  0  0
 13 23  1  0  0  0  0
 13 24  1  0  0  0  0
 13 25  1  0  0  0  0
 14 15  2  0  0  0  0
 14 19  1  0  0  0  0
 15 16  1  0  0  0  0
 15 26  1  0  0  0  0
 16 17  2  0  0  0  0
 16 27  1  0  0  0  0
 17 18  1  0  0  0  0
 17 28  1  0  0  0  0
 18 19  2  0  0  0  0
 18 29  1  0  0  0  0
 19 30  1  0  0  0  0
M  END
