3-12b
 OpenBabel04201808233D
Structure written by MMmdl.
 50 54  0  0  0  0  0  0  0  0999 V2000
   -0.8113    1.1243    1.9022 C   0  0  0  0  0  0  0  0  0  0  0  0
   -2.1071    1.3465    2.4265 C   0  0  0  0  0  0  0  0  0  0  0  0
   -2.7393    0.0942    2.5253 C   0  0  0  0  0  0  0  0  0  0  0  0
   -1.8424   -0.8782    2.0657 N   0  0  0  0  0  0  0  0  0  0  0  0
   -0.6847   -0.2284    1.7009 C   0  0  0  0  0  0  0  0  0  0  0  0
   -2.8091    2.5045    2.8187 C   0  0  0  0  0  0  0  0  0  0  0  0
   -4.1146    2.3928    3.3050 C   0  0  0  0  0  0  0  0  0  0  0  0
   -4.7265    1.1486    3.4019 C   0  0  0  0  0  0  0  0  0  0  0  0
   -4.0547   -0.0156    3.0156 C   0  0  0  0  0  0  0  0  0  0  0  0
    0.5102   -0.9354    1.1631 C   0  0  2  0  0  0  0  0  0  0  0  0
    1.3543   -0.0053    0.3843 N   0  0  0  0  0  0  0  0  0  0  0  0
    1.5767    1.2771    1.1498 C   0  0  2  0  0  0  0  0  0  0  0  0
    0.2887    2.0670    1.5351 C   0  0  0  0  0  0  0  0  0  0  0  0
   -2.0356   -2.2704    1.9540 C   0  0  0  0  0  0  0  0  0  0  0  0
    0.0690   -2.2499    0.5085 C   0  0  0  0  0  0  0  0  0  0  0  0
   -0.8119   -3.0339    1.4849 C   0  0  0  0  0  0  0  0  0  0  0  0
   -3.0966   -2.7925    2.2870 O   0  0  0  0  0  0  0  0  0  0  0  0
    1.1240    0.1068   -1.0632 C   0  0  0  0  0  0  0  0  0  0  0  0
    0.0363    1.0299   -1.5711 C   0  0  0  0  0  0  0  0  0  0  0  0
    0.3723    2.2762   -2.1280 C   0  0  0  0  0  0  0  0  0  0  0  0
   -0.6153    3.1367   -2.6137 C   0  0  0  0  0  0  0  0  0  0  0  0
   -1.9543    2.7608   -2.5615 C   0  0  0  0  0  0  0  0  0  0  0  0
   -2.3041    1.5210   -2.0337 C   0  0  0  0  0  0  0  0  0  0  0  0
   -1.3156    0.6593   -1.5507 C   0  0  0  0  0  0  0  0  0  0  0  0
    2.6249    2.1989    0.5159 C   0  0  0  0  0  0  0  0  0  0  0  0
    2.4988    3.4084    0.3498 O   0  0  0  0  0  0  0  0  0  0  0  0
    3.7612    1.5021    0.2061 O   0  0  0  0  0  0  0  0  0  0  0  0
    4.8035    2.2889   -0.3790 C   0  0  0  0  0  0  0  0  0  0  0  0
   -2.3411    3.4841    2.7450 H   0  0  0  0  0  0  0  0  0  0  0  0
   -4.6548    3.2882    3.6085 H   0  0  0  0  0  0  0  0  0  0  0  0
   -5.7450    1.0774    3.7825 H   0  0  0  0  0  0  0  0  0  0  0  0
   -4.5537   -0.9783    3.0972 H   0  0  0  0  0  0  0  0  0  0  0  0
    1.1170   -1.2227    2.0352 H   0  0  0  0  0  0  0  0  0  0  0  0
    2.0433    0.9794    2.1024 H   0  0  0  0  0  0  0  0  0  0  0  0
    0.5083    2.7249    2.3851 H   0  0  0  0  0  0  0  0  0  0  0  0
   -0.0466    2.7113    0.7161 H   0  0  0  0  0  0  0  0  0  0  0  0
    0.9442   -2.8496    0.2333 H   0  0  0  0  0  0  0  0  0  0  0  0
   -0.5097   -2.0770   -0.4044 H   0  0  0  0  0  0  0  0  0  0  0  0
   -1.1563   -3.9520    0.9957 H   0  0  0  0  0  0  0  0  0  0  0  0
   -0.2366   -3.3240    2.3719 H   0  0  0  0  0  0  0  0  0  0  0  0
    0.9749   -0.8824   -1.5121 H   0  0  0  0  0  0  0  0  0  0  0  0
    2.0703    0.4235   -1.5217 H   0  0  0  0  0  0  0  0  0  0  0  0
    1.4129    2.5916   -2.1922 H   0  0  0  0  0  0  0  0  0  0  0  0
   -0.3366    4.1010   -3.0350 H   0  0  0  0  0  0  0  0  0  0  0  0
   -2.7248    3.4305   -2.9384 H   0  0  0  0  0  0  0  0  0  0  0  0
   -3.3497    1.2200   -1.9990 H   0  0  0  0  0  0  0  0  0  0  0  0
   -1.6219   -0.3060   -1.1578 H   0  0  0  0  0  0  0  0  0  0  0  0
    5.6437    1.6255   -0.6013 H   0  0  0  0  0  0  0  0  0  0  0  0
    5.1413    3.0561    0.3243 H   0  0  0  0  0  0  0  0  0  0  0  0
    4.4603    2.7416   -1.3143 H   0  0  0  0  0  0  0  0  0  0  0  0
  1  2  1  0  0  0  0
  1  5  2  0  0  0  0
  1 13  1  0  0  0  0
  2  3  2  0  0  0  0
  2  6  1  0  0  0  0
  3  4  1  0  0  0  0
  3  9  1  0  0  0  0
  4  5  1  0  0  0  0
  4 14  1  0  0  0  0
  5 10  1  0  0  0  0
  6  7  2  0  0  0  0
  6 29  1  0  0  0  0
  7  8  1  0  0  0  0
  7 30  1  0  0  0  0
  8  9  2  0  0  0  0
  8 31  1  0  0  0  0
  9 32  1  0  0  0  0
 10 11  1  0  0  0  0
 10 15  1  0  0  0  0
 10 33  1  1  0  0  0
 11 12  1  0  0  0  0
 11 18  1  0  0  0  0
 12 13  1  0  0  0  0
 12 25  1  0  0  0  0
 12 34  1  1  0  0  0
 13 35  1  0  0  0  0
 13 36  1  0  0  0  0
 14 16  1  0  0  0  0
 14 17  2  0  0  0  0
 15 16  1  0  0  0  0
 15 37  1  0  0  0  0
 15 38  1  0  0  0  0
 16 39  1  0  0  0  0
 16 40  1  0  0  0  0
 18 19  1  0  0  0  0
 18 41  1  0  0  0  0
 18 42  1  0  0  0  0
 19 20  2  0  0  0  0
 19 24  1  0  0  0  0
 20 21  1  0  0  0  0
 20 43  1  0  0  0  0
 21 22  2  0  0  0  0
 21 44  1  0  0  0  0
 22 23  1  0  0  0  0
 22 45  1  0  0  0  0
 23 24  2  0  0  0  0
 23 46  1  0  0  0  0
 24 47  1  0  0  0  0
 25 26  2  0  0  0  0
 25 27  1  0  0  0  0
 27 28  1  0  0  0  0
 28 48  1  0  0  0  0
 28 49  1  0  0  0  0
 28 50  1  0  0  0  0
M  END
