DMCM
 OpenBabel04201808233D
Structure written by MMmdl.
 41 43  0  0  0  0  0  0  0  0999 V2000
    1.0745   -0.4228   -0.1771 C   0  0  0  0  0  0  0  0  0  0  0  0
   -0.2141   -0.9165    0.2632 C   0  0  0  0  0  0  0  0  0  0  0  0
   -0.1137   -2.3018    0.3843 C   0  0  0  0  0  0  0  0  0  0  0  0
    1.1718   -2.6508    0.0537 N   0  0  0  0  0  0  0  0  0  0  0  0
    1.9081   -1.5366   -0.2740 C   0  0  0  0  0  0  0  0  0  0  0  0
   -1.4580   -0.3192    0.5923 C   0  0  0  0  0  0  0  0  0  0  0  0
   -2.5292   -1.1091    1.0356 C   0  0  0  0  0  0  0  0  0  0  0  0
   -2.3904   -2.4985    1.0855 C   0  0  0  0  0  0  0  0  0  0  0  0
   -1.1769   -3.1191    0.7852 C   0  0  0  0  0  0  0  0  0  0  0  0
    3.2413   -1.4572   -0.6378 C   0  0  0  0  0  0  0  0  0  0  0  0
    3.7704   -0.2464   -0.8963 N   0  0  0  0  0  0  0  0  0  0  0  0
    2.9820    0.8697   -0.8174 C   0  0  0  0  0  0  0  0  0  0  0  0
    1.6099    0.8605   -0.4852 C   0  0  0  0  0  0  0  0  0  0  0  0
    0.6855    2.7394    0.9167 C   0  0  0  0  0  0  0  0  0  0  0  0
    0.7713    2.1150   -0.4693 C   0  0  0  0  0  0  0  0  0  0  0  0
   -3.7492   -0.6024    1.4080 O   0  0  0  0  0  0  0  0  0  0  0  0
   -3.7229    0.7210    1.9417 C   0  0  0  0  0  0  0  0  0  0  0  0
   -3.4310   -3.2751    1.5379 O   0  0  0  0  0  0  0  0  0  0  0  0
   -4.0913   -3.9003    0.4305 C   0  0  0  0  0  0  0  0  0  0  0  0
    3.7268    2.1554   -1.1031 C   0  0  0  0  0  0  0  0  0  0  0  0
    3.4228    3.2730   -0.7103 O   0  0  0  0  0  0  0  0  0  0  0  0
    4.8115    1.8798   -1.8811 O   0  0  0  0  0  0  0  0  0  0  0  0
    5.6316    3.0091   -2.2006 C   0  0  0  0  0  0  0  0  0  0  0  0
    1.5323   -3.5963    0.0674 H   0  0  0  0  0  0  0  0  0  0  0  0
   -1.5716    0.7564    0.5079 H   0  0  0  0  0  0  0  0  0  0  0  0
   -1.0595   -4.1944    0.8751 H   0  0  0  0  0  0  0  0  0  0  0  0
    3.8930   -2.3210   -0.7109 H   0  0  0  0  0  0  0  0  0  0  0  0
    0.0615    3.6384    0.8848 H   0  0  0  0  0  0  0  0  0  0  0  0
    1.6747    3.0233    1.2898 H   0  0  0  0  0  0  0  0  0  0  0  0
    0.2461    2.0508    1.6453 H   0  0  0  0  0  0  0  0  0  0  0  0
   -0.2339    1.8739   -0.8300 H   0  0  0  0  0  0  0  0  0  0  0  0
    1.1370    2.8453   -1.1990 H   0  0  0  0  0  0  0  0  0  0  0  0
   -4.6544    0.8725    2.4965 H   0  0  0  0  0  0  0  0  0  0  0  0
   -3.6836    1.4576    1.1324 H   0  0  0  0  0  0  0  0  0  0  0  0
   -2.8948    0.8613    2.6464 H   0  0  0  0  0  0  0  0  0  0  0  0
   -4.9071   -4.5068    0.8321 H   0  0  0  0  0  0  0  0  0  0  0  0
   -3.4161   -4.5651   -0.1187 H   0  0  0  0  0  0  0  0  0  0  0  0
   -4.5221   -3.1493   -0.2399 H   0  0  0  0  0  0  0  0  0  0  0  0
    6.5496    2.6371   -2.6646 H   0  0  0  0  0  0  0  0  0  0  0  0
    5.9072    3.5616   -1.2964 H   0  0  0  0  0  0  0  0  0  0  0  0
    5.1123    3.6565   -2.9142 H   0  0  0  0  0  0  0  0  0  0  0  0
  1  2  1  0  0  0  0
  1  5  2  0  0  0  0
  1 13  1  0  0  0  0
  2  3  2  0  0  0  0
  2  6  1  0  0  0  0
  3  4  1  0  0  0  0
  3  9  1  0  0  0  0
  4  5  1  0  0  0  0
  4 24  1  0  0  0  0
  5 10  1  0  0  0  0
  6  7  2  0  0  0  0
  6 25  1  0  0  0  0
  7  8  1  0  0  0  0
  7 16  1  0  0  0  0
  8  9  2  0  0  0  0
  8 18  1  0  0  0  0
  9 26  1  0  0  0  0
 10 11  2  0  0  0  0
 10 27  1  0  0  0  0
 11 12  1  0  0  0  0
 12 13  2  0  0  0  0
 12 20  1  0  0  0  0
 13 15  1  0  0  0  0
 14 15  1  0  0  0  0
 14 28  1  0  0  0  0
 14 29  1  0  0  0  0
 14 30  1  0  0  0  0
 15 31  1  0  0  0  0
 15 32  1  0  0  0  0
 16 17  1  0  0  0  0
 17 33  1  0  0  0  0
 17 34  1  0  0  0  0
 17 35  1  0  0  0  0
 18 19  1  0  0  0  0
 19 36  1  0  0  0  0
 19 37  1  0  0  0  0
 19 38  1  0  0  0  0
 20 21  2  0  0  0  0
 20 22  1  0  0  0  0
 22 23  1  0  0  0  0
 23 39  1  0  0  0  0
 23 40  1  0  0  0  0
 23 41  1  0  0  0  0
M  END
