8-2_betaCCM
 OpenBabel04201808233D
Structure written by MMmdl.
 27 29  0  0  0  0  0  0  0  0999 V2000
    0.4701   -0.5543    1.0250 C   0  0  0  0  0  0  0  0  0  0  0  0
   -0.8526   -0.9189    1.4323 C   0  0  0  0  0  0  0  0  0  0  0  0
   -0.7908   -2.2180    1.9358 C   0  0  0  0  0  0  0  0  0  0  0  0
    0.5197   -2.6308    1.8393 N   0  0  0  0  0  0  0  0  0  0  0  0
    1.3014   -1.6394    1.2904 C   0  0  0  0  0  0  0  0  0  0  0  0
   -2.0999   -0.2602    1.4185 C   0  0  0  0  0  0  0  0  0  0  0  0
   -3.2330   -0.9222    1.9063 C   0  0  0  0  0  0  0  0  0  0  0  0
   -3.1384   -2.2201    2.4028 C   0  0  0  0  0  0  0  0  0  0  0  0
   -1.9140   -2.8943    2.4273 C   0  0  0  0  0  0  0  0  0  0  0  0
    2.6610   -1.6213    1.0130 C   0  0  0  0  0  0  0  0  0  0  0  0
    3.2021   -0.5073    0.4635 N   0  0  0  0  0  0  0  0  0  0  0  0
    2.4027    0.5671    0.1964 C   0  0  0  0  0  0  0  0  0  0  0  0
    1.0349    0.5986    0.4555 C   0  0  0  0  0  0  0  0  0  0  0  0
    3.1159    1.7432   -0.4115 C   0  0  0  0  0  0  0  0  0  0  0  0
    4.3152    1.7665   -0.6632 O   0  0  0  0  0  0  0  0  0  0  0  0
    2.2542    2.7709   -0.6417 O   0  0  0  0  0  0  0  0  0  0  0  0
    2.8538    3.9350   -1.2210 C   0  0  0  0  0  0  0  0  0  0  0  0
    0.8599   -3.5387    2.1322 H   0  0  0  0  0  0  0  0  0  0  0  0
   -2.1871    0.7535    1.0334 H   0  0  0  0  0  0  0  0  0  0  0  0
   -4.1971   -0.4156    1.8966 H   0  0  0  0  0  0  0  0  0  0  0  0
   -4.0314   -2.7190    2.7782 H   0  0  0  0  0  0  0  0  0  0  0  0
   -1.8426   -3.9075    2.8154 H   0  0  0  0  0  0  0  0  0  0  0  0
    3.3219   -2.4580    1.2136 H   0  0  0  0  0  0  0  0  0  0  0  0
    0.4219    1.4642    0.2339 H   0  0  0  0  0  0  0  0  0  0  0  0
    3.2828    3.6959   -2.1989 H   0  0  0  0  0  0  0  0  0  0  0  0
    3.6161    4.3443   -0.5510 H   0  0  0  0  0  0  0  0  0  0  0  0
    2.0709    4.6858   -1.3580 H   0  0  0  0  0  0  0  0  0  0  0  0
  1  2  1  0  0  0  0
  1  5  2  0  0  0  0
  1 13  1  0  0  0  0
  2  3  2  0  0  0  0
  2  6  1  0  0  0  0
  3  4  1  0  0  0  0
  3  9  1  0  0  0  0
  4  5  1  0  0  0  0
  4 18  1  0  0  0  0
  5 10  1  0  0  0  0
  6  7  2  0  0  0  0
  6 19  1  0  0  0  0
  7  8  1  0  0  0  0
  7 20  1  0  0  0  0
  8  9  2  0  0  0  0
  8 21  1  0  0  0  0
  9 22  1  0  0  0  0
 10 11  2  0  0  0  0
 10 23  1  0  0  0  0
 11 12  1  0  0  0  0
 12 13  2  0  0  0  0
 12 14  1  0  0  0  0
 13 24  1  0  0  0  0
 14 15  2  0  0  0  0
 14 16  1  0  0  0  0
 16 17  1  0  0  0  0
 17 25  1  0  0  0  0
 17 26  1  0  0  0  0
 17 27  1  0  0  0  0
M  END
