8-7
 OpenBabel04201808233D
Structure written by MMmdl.
 34 36  0  0  0  0  0  0  0  0999 V2000
    0.0822   -0.4336    2.6987 C   0  0  0  0  0  0  0  0  0  0  0  0
   -0.9784   -0.5856    3.6467 C   0  0  0  0  0  0  0  0  0  0  0  0
   -0.9193   -1.8917    4.1328 C   0  0  0  0  0  0  0  0  0  0  0  0
    0.1381   -2.5133    3.5054 N   0  0  0  0  0  0  0  0  0  0  0  0
    0.7592   -1.6494    2.6325 C   0  0  0  0  0  0  0  0  0  0  0  0
   -1.9864    0.2708    4.1370 C   0  0  0  0  0  0  0  0  0  0  0  0
   -2.8930   -0.2084    5.0900 C   0  0  0  0  0  0  0  0  0  0  0  0
   -2.8077   -1.5184    5.5555 C   0  0  0  0  0  0  0  0  0  0  0  0
   -1.8180   -2.3868    5.0855 C   0  0  0  0  0  0  0  0  0  0  0  0
    1.8531   -1.8450    1.7997 C   0  0  0  0  0  0  0  0  0  0  0  0
    2.2780   -0.8176    1.0228 N   0  0  0  0  0  0  0  0  0  0  0  0
    1.6254    0.3638    1.0813 C   0  0  0  0  0  0  0  0  0  0  0  0
    0.5304    0.6223    1.8909 C   0  0  0  0  0  0  0  0  0  0  0  0
    2.0519    1.4166    0.2942 O   0  0  0  0  0  0  0  0  0  0  0  0
    3.1689    1.0964   -0.5439 C   0  0  0  0  0  0  0  0  0  0  0  0
    3.5304    2.3339   -1.3799 C   0  0  0  0  0  0  0  0  0  0  0  0
    2.3826    2.7346   -2.3096 C   0  0  0  0  0  0  0  0  0  0  0  0
    4.8017    2.0798   -2.1876 C   0  0  0  0  0  0  0  0  0  0  0  0
    0.4183   -3.4733    3.6654 H   0  0  0  0  0  0  0  0  0  0  0  0
   -2.0634    1.2960    3.7811 H   0  0  0  0  0  0  0  0  0  0  0  0
   -3.6721    0.4512    5.4699 H   0  0  0  0  0  0  0  0  0  0  0  0
   -3.5226   -1.8734    6.2974 H   0  0  0  0  0  0  0  0  0  0  0  0
   -1.7536   -3.4091    5.4503 H   0  0  0  0  0  0  0  0  0  0  0  0
    2.3930   -2.7837    1.7349 H   0  0  0  0  0  0  0  0  0  0  0  0
    0.0481    1.5930    1.8954 H   0  0  0  0  0  0  0  0  0  0  0  0
    2.9162    0.2613   -1.2104 H   0  0  0  0  0  0  0  0  0  0  0  0
    4.0281    0.8203    0.0808 H   0  0  0  0  0  0  0  0  0  0  0  0
    3.7094    3.1749   -0.6978 H   0  0  0  0  0  0  0  0  0  0  0  0
    2.6521    3.6170   -2.8998 H   0  0  0  0  0  0  0  0  0  0  0  0
    1.4801    2.9808   -1.7409 H   0  0  0  0  0  0  0  0  0  0  0  0
    2.1349    1.9255   -3.0052 H   0  0  0  0  0  0  0  0  0  0  0  0
    5.0814    2.9684   -2.7632 H   0  0  0  0  0  0  0  0  0  0  0  0
    4.6677    1.2496   -2.8895 H   0  0  0  0  0  0  0  0  0  0  0  0
    5.6393    1.8331   -1.5268 H   0  0  0  0  0  0  0  0  0  0  0  0
  1  2  1  0  0  0  0
  1  5  2  0  0  0  0
  1 13  1  0  0  0  0
  2  3  2  0  0  0  0
  2  6  1  0  0  0  0
  3  4  1  0  0  0  0
  3  9  1  0  0  0  0
  4  5  1  0  0  0  0
  4 19  1  0  0  0  0
  5 10  1  0  0  0  0
  6  7  2  0  0  0  0
  6 20  1  0  0  0  0
  7  8  1  0  0  0  0
  7 21  1  0  0  0  0
  8  9  2  0  0  0  0
  8 22  1  0  0  0  0
  9 23  1  0  0  0  0
 10 11  2  0  0  0  0
 10 24  1  0  0  0  0
 11 12  1  0  0  0  0
 12 13  2  0  0  0  0
 12 14  1  0  0  0  0
 13 25  1  0  0  0  0
 14 15  1  0  0  0  0
 15 16  1  0  0  0  0
 15 26  1  0  0  0  0
 15 27  1  0  0  0  0
 16 17  1  0  0  0  0
 16 18  1  0  0  0  0
 16 28  1  0  0  0  0
 17 29  1  0  0  0  0
 17 30  1  0  0  0  0
 17 31  1  0  0  0  0
 18 32  1  0  0  0  0
 18 33  1  0  0  0  0
 18 34  1  0  0  0  0
M  END
