8-10
 OpenBabel04201808233D
Structure written by MMmdl.
 35 38  0  0  0  0  0  0  0  0999 V2000
   -0.6028   -1.7550    1.7021 C   0  0  0  0  0  0  0  0  0  0  0  0
   -1.7504   -2.1672    2.4496 C   0  0  0  0  0  0  0  0  0  0  0  0
   -1.6203   -3.5346    2.6931 C   0  0  0  0  0  0  0  0  0  0  0  0
   -0.4391   -3.9420    2.1127 N   0  0  0  0  0  0  0  0  0  0  0  0
    0.1903   -2.8825    1.5007 C   0  0  0  0  0  0  0  0  0  0  0  0
   -2.8935   -1.5011    2.9395 C   0  0  0  0  0  0  0  0  0  0  0  0
   -3.8593   -2.2237    3.6501 C   0  0  0  0  0  0  0  0  0  0  0  0
   -3.6982   -3.5878    3.8808 C   0  0  0  0  0  0  0  0  0  0  0  0
   -2.5742   -4.2706    3.4067 C   0  0  0  0  0  0  0  0  0  0  0  0
    1.3835   -2.8331    0.7925 C   0  0  0  0  0  0  0  0  0  0  0  0
    1.7933   -1.6466    0.2796 N   0  0  0  0  0  0  0  0  0  0  0  0
    1.0302   -0.5486    0.4736 C   0  0  0  0  0  0  0  0  0  0  0  0
   -0.1662   -0.5309    1.1741 C   0  0  0  0  0  0  0  0  0  0  0  0
    1.4459    0.6639   -0.0379 O   0  0  0  0  0  0  0  0  0  0  0  0
    2.6138    0.5626   -0.8556 C   0  0  0  0  0  0  0  0  0  0  0  0
    2.9105    1.9404   -1.4000 C   0  0  0  0  0  0  0  0  0  0  0  0
    2.1139    2.4828   -2.4195 C   0  0  0  0  0  0  0  0  0  0  0  0
    2.3664    3.7656   -2.9090 C   0  0  0  0  0  0  0  0  0  0  0  0
    3.4137    4.5196   -2.3835 C   0  0  0  0  0  0  0  0  0  0  0  0
    4.2108    3.9910   -1.3696 C   0  0  0  0  0  0  0  0  0  0  0  0
    3.9605    2.7081   -0.8773 C   0  0  0  0  0  0  0  0  0  0  0  0
   -0.0868   -4.8912    2.1292 H   0  0  0  0  0  0  0  0  0  0  0  0
   -3.0309   -0.4358    2.7659 H   0  0  0  0  0  0  0  0  0  0  0  0
   -4.7452   -1.7123    4.0247 H   0  0  0  0  0  0  0  0  0  0  0  0
   -4.4599   -4.1323    4.4376 H   0  0  0  0  0  0  0  0  0  0  0  0
   -2.4518   -5.3359    3.5865 H   0  0  0  0  0  0  0  0  0  0  0  0
    2.0125   -3.7003    0.6223 H   0  0  0  0  0  0  0  0  0  0  0  0
   -0.7342    0.3840    1.2995 H   0  0  0  0  0  0  0  0  0  0  0  0
    2.4459   -0.1221   -1.6977 H   0  0  0  0  0  0  0  0  0  0  0  0
    3.4671    0.2031   -0.2658 H   0  0  0  0  0  0  0  0  0  0  0  0
    1.2861    1.9067   -2.8335 H   0  0  0  0  0  0  0  0  0  0  0  0
    1.7402    4.1793   -3.6977 H   0  0  0  0  0  0  0  0  0  0  0  0
    3.6070    5.5216   -2.7622 H   0  0  0  0  0  0  0  0  0  0  0  0
    5.0268    4.5821   -0.9562 H   0  0  0  0  0  0  0  0  0  0  0  0
    4.5899    2.3146   -0.0796 H   0  0  0  0  0  0  0  0  0  0  0  0
  1  2  1  0  0  0  0
  1  5  2  0  0  0  0
  1 13  1  0  0  0  0
  2  3  2  0  0  0  0
  2  6  1  0  0  0  0
  3  4  1  0  0  0  0
  3  9  1  0  0  0  0
  4  5  1  0  0  0  0
  4 22  1  0  0  0  0
  5 10  1  0  0  0  0
  6  7  2  0  0  0  0
  6 23  1  0  0  0  0
  7  8  1  0  0  0  0
  7 24  1  0  0  0  0
  8  9  2  0  0  0  0
  8 25  1  0  0  0  0
  9 26  1  0  0  0  0
 10 11  2  0  0  0  0
 10 27  1  0  0  0  0
 11 12  1  0  0  0  0
 12 13  2  0  0  0  0
 12 14  1  0  0  0  0
 13 28  1  0  0  0  0
 14 15  1  0  0  0  0
 15 16  1  0  0  0  0
 15 29  1  0  0  0  0
 15 30  1  0  0  0  0
 16 17  2  0  0  0  0
 16 21  1  0  0  0  0
 17 18  1  0  0  0  0
 17 31  1  0  0  0  0
 18 19  2  0  0  0  0
 18 32  1  0  0  0  0
 19 20  1  0  0  0  0
 19 33  1  0  0  0  0
 20 21  2  0  0  0  0
 20 34  1  0  0  0  0
 21 35  1  0  0  0  0
M  END
