Ro05-6820
 OpenBabel04201808233D
Structure written by MMmdl.
 30 32  0  0  0  0  0  0  0  0999 V2000
   -2.1018    2.4921   -0.2270 C   0  0  0  0  0  0  0  0  0  0  0  0
   -2.3205    1.1320   -0.0711 C   0  0  0  0  0  0  0  0  0  0  0  0
   -1.2617    0.2564    0.1356 C   0  0  0  0  0  0  0  0  0  0  0  0
    0.0533    0.7473    0.2024 C   0  0  0  0  0  0  0  0  0  0  0  0
    0.2804    2.1339    0.1127 C   0  0  0  0  0  0  0  0  0  0  0  0
   -0.8019    2.9911   -0.1421 C   0  0  0  0  0  0  0  0  0  0  0  0
    1.1726   -0.2489    0.2331 C   0  0  0  0  0  0  0  0  0  0  0  0
    2.2636   -0.1398    0.9184 N   0  0  0  0  0  0  0  0  0  0  0  0
    2.4265    1.0345    1.7734 C   0  0  0  0  0  0  0  0  0  0  0  0
    2.6283    2.2763    0.9203 C   0  0  0  0  0  0  0  0  0  0  0  0
    1.5358    2.7527    0.2436 N   0  0  0  0  0  0  0  0  0  0  0  0
    1.0440   -1.4583   -0.6290 C   0  0  0  0  0  0  0  0  0  0  0  0
    3.7038    2.8833    0.8843 O   0  0  0  0  0  0  0  0  0  0  0  0
   -3.5692    0.6519   -0.1417 F   0  0  0  0  0  0  0  0  0  0  0  0
    1.4653   -2.7071   -0.1553 C   0  0  0  0  0  0  0  0  0  0  0  0
    1.3314   -3.8366   -0.9665 C   0  0  0  0  0  0  0  0  0  0  0  0
    0.7759   -3.7227   -2.2426 C   0  0  0  0  0  0  0  0  0  0  0  0
    0.3505   -2.4791   -2.7115 C   0  0  0  0  0  0  0  0  0  0  0  0
    0.4828   -1.3531   -1.9029 C   0  0  0  0  0  0  0  0  0  0  0  0
    0.0889   -0.1656   -2.3877 F   0  0  0  0  0  0  0  0  0  0  0  0
   -2.9392    3.1613   -0.4029 H   0  0  0  0  0  0  0  0  0  0  0  0
   -1.4799   -0.8039    0.2252 H   0  0  0  0  0  0  0  0  0  0  0  0
   -0.6483    4.0645   -0.2437 H   0  0  0  0  0  0  0  0  0  0  0  0
    3.3223    0.8955    2.3885 H   0  0  0  0  0  0  0  0  0  0  0  0
    1.5871    1.1680    2.4654 H   0  0  0  0  0  0  0  0  0  0  0  0
    1.6426    3.6932   -0.1271 H   0  0  0  0  0  0  0  0  0  0  0  0
    1.8869   -2.8148    0.8419 H   0  0  0  0  0  0  0  0  0  0  0  0
    1.6579   -4.8093   -0.6013 H   0  0  0  0  0  0  0  0  0  0  0  0
    0.6735   -4.6053   -2.8719 H   0  0  0  0  0  0  0  0  0  0  0  0
   -0.0803   -2.3838   -3.7046 H   0  0  0  0  0  0  0  0  0  0  0  0
  1  2  2  0  0  0  0
  1  6  1  0  0  0  0
  1 21  1  0  0  0  0
  2  3  1  0  0  0  0
  2 14  1  0  0  0  0
  3  4  2  0  0  0  0
  3 22  1  0  0  0  0
  4  5  1  0  0  0  0
  4  7  1  0  0  0  0
  5  6  2  0  0  0  0
  5 11  1  0  0  0  0
  6 23  1  0  0  0  0
  7  8  2  0  0  0  0
  7 12  1  0  0  0  0
  8  9  1  0  0  0  0
  9 10  1  0  0  0  0
  9 24  1  0  0  0  0
  9 25  1  0  0  0  0
 10 11  1  0  0  0  0
 10 13  2  0  0  0  0
 11 26  1  0  0  0  0
 12 15  2  0  0  0  0
 12 19  1  0  0  0  0
 15 16  1  0  0  0  0
 15 27  1  0  0  0  0
 16 17  2  0  0  0  0
 16 28  1  0  0  0  0
 17 18  1  0  0  0  0
 17 29  1  0  0  0  0
 18 19  2  0  0  0  0
 18 30  1  0  0  0  0
 19 20  1  0  0  0  0
M  END
