8-12
 OpenBabel04201808233D
Structure written by MMmdl.
 35 37  0  0  0  0  0  0  0  0999 V2000
    0.2902   -0.5641    2.1368 C   0  0  0  0  0  0  0  0  0  0  0  0
   -0.9128   -0.9055    2.8329 C   0  0  0  0  0  0  0  0  0  0  0  0
   -0.8948   -2.2837    3.0459 C   0  0  0  0  0  0  0  0  0  0  0  0
    0.2732   -2.7666    2.4989 N   0  0  0  0  0  0  0  0  0  0  0  0
    1.0077   -1.7438    1.9425 C   0  0  0  0  0  0  0  0  0  0  0  0
   -2.0183   -0.1657    3.3029 C   0  0  0  0  0  0  0  0  0  0  0  0
   -3.0582   -0.8290    3.9654 C   0  0  0  0  0  0  0  0  0  0  0  0
   -3.0098   -2.2067    4.1638 C   0  0  0  0  0  0  0  0  0  0  0  0
   -1.9256   -2.9618    3.7075 C   0  0  0  0  0  0  0  0  0  0  0  0
    2.2372   -1.7743    1.2952 C   0  0  0  0  0  0  0  0  0  0  0  0
    2.7620   -0.6161    0.8302 N   0  0  0  0  0  0  0  0  0  0  0  0
    2.0589    0.5326    1.0133 C   0  0  0  0  0  0  0  0  0  0  0  0
    0.8344    0.6373    1.6585 C   0  0  0  0  0  0  0  0  0  0  0  0
    2.7067    1.7612    0.4930 C   0  0  0  0  0  0  0  0  0  0  0  0
    3.4706    2.3773    1.2425 O   0  0  0  0  0  0  0  0  0  0  0  0
    2.3489    2.2463   -0.9273 C   0  0  0  0  0  0  0  0  0  0  0  0
    1.8137    1.1332   -1.8418 C   0  0  0  0  0  0  0  0  0  0  0  0
    3.6203    2.8284   -1.5705 C   0  0  0  0  0  0  0  0  0  0  0  0
    1.2926    3.3542   -0.8039 C   0  0  0  0  0  0  0  0  0  0  0  0
    0.5523   -3.7403    2.5068 H   0  0  0  0  0  0  0  0  0  0  0  0
   -2.0683    0.9110    3.1548 H   0  0  0  0  0  0  0  0  0  0  0  0
   -3.9130   -0.2603    4.3285 H   0  0  0  0  0  0  0  0  0  0  0  0
   -3.8279   -2.7055    4.6822 H   0  0  0  0  0  0  0  0  0  0  0  0
   -1.8894   -4.0372    3.8636 H   0  0  0  0  0  0  0  0  0  0  0  0
    2.8064   -2.6851    1.1424 H   0  0  0  0  0  0  0  0  0  0  0  0
    0.3311    1.5882    1.7883 H   0  0  0  0  0  0  0  0  0  0  0  0
    1.6300    1.5095   -2.8547 H   0  0  0  0  0  0  0  0  0  0  0  0
    0.8670    0.7232   -1.4734 H   0  0  0  0  0  0  0  0  0  0  0  0
    2.5272    0.3052   -1.9202 H   0  0  0  0  0  0  0  0  0  0  0  0
    3.4249    3.1914   -2.5858 H   0  0  0  0  0  0  0  0  0  0  0  0
    4.4113    2.0718   -1.6280 H   0  0  0  0  0  0  0  0  0  0  0  0
    4.0159    3.6696   -0.9898 H   0  0  0  0  0  0  0  0  0  0  0  0
    1.0627    3.7959   -1.7798 H   0  0  0  0  0  0  0  0  0  0  0  0
    1.6361    4.1586   -0.1435 H   0  0  0  0  0  0  0  0  0  0  0  0
    0.3577    2.9671   -0.3839 H   0  0  0  0  0  0  0  0  0  0  0  0
  1  2  1  0  0  0  0
  1  5  2  0  0  0  0
  1 13  1  0  0  0  0
  2  3  2  0  0  0  0
  2  6  1  0  0  0  0
  3  4  1  0  0  0  0
  3  9  1  0  0  0  0
  4  5  1  0  0  0  0
  4 20  1  0  0  0  0
  5 10  1  0  0  0  0
  6  7  2  0  0  0  0
  6 21  1  0  0  0  0
  7  8  1  0  0  0  0
  7 22  1  0  0  0  0
  8  9  2  0  0  0  0
  8 23  1  0  0  0  0
  9 24  1  0  0  0  0
 10 11  2  0  0  0  0
 10 25  1  0  0  0  0
 11 12  1  0  0  0  0
 12 13  2  0  0  0  0
 12 14  1  0  0  0  0
 13 26  1  0  0  0  0
 14 15  2  0  0  0  0
 14 16  1  0  0  0  0
 16 17  1  0  0  0  0
 16 18  1  0  0  0  0
 16 19  1  0  0  0  0
 17 27  1  0  0  0  0
 17 28  1  0  0  0  0
 17 29  1  0  0  0  0
 18 30  1  0  0  0  0
 18 31  1  0  0  0  0
 18 32  1  0  0  0  0
 19 33  1  0  0  0  0
 19 34  1  0  0  0  0
 19 35  1  0  0  0  0
M  END
