8-14_betaCCE
 OpenBabel04201808233D
Structure written by MMmdl.
 30 32  0  0  0  0  0  0  0  0999 V2000
    0.4068   -1.1122    1.5949 C   0  0  0  0  0  0  0  0  0  0  0  0
   -0.9094   -1.5297    1.9710 C   0  0  0  0  0  0  0  0  0  0  0  0
   -0.7916   -2.7746    2.5886 C   0  0  0  0  0  0  0  0  0  0  0  0
    0.5458   -3.1043    2.5898 N   0  0  0  0  0  0  0  0  0  0  0  0
    1.2904   -2.1120    1.9931 C   0  0  0  0  0  0  0  0  0  0  0  0
   -2.1935   -0.9605    1.8418 C   0  0  0  0  0  0  0  0  0  0  0  0
   -3.3062   -1.6542    2.3324 C   0  0  0  0  0  0  0  0  0  0  0  0
   -3.1554   -2.8963    2.9443 C   0  0  0  0  0  0  0  0  0  0  0  0
   -1.8937   -3.4817    3.0845 C   0  0  0  0  0  0  0  0  0  0  0  0
    2.6588   -2.0250    1.7789 C   0  0  0  0  0  0  0  0  0  0  0  0
    3.1559   -0.9274    1.1594 N   0  0  0  0  0  0  0  0  0  0  0  0
    2.3046    0.0632    0.7613 C   0  0  0  0  0  0  0  0  0  0  0  0
    0.9259    0.0238    0.9528 C   0  0  0  0  0  0  0  0  0  0  0  0
    2.9719    1.2290    0.0857 C   0  0  0  0  0  0  0  0  0  0  0  0
    4.1797    1.3184   -0.1015 O   0  0  0  0  0  0  0  0  0  0  0  0
    2.0566    2.1636   -0.2872 O   0  0  0  0  0  0  0  0  0  0  0  0
    2.6021    3.3183   -0.9438 C   0  0  0  0  0  0  0  0  0  0  0  0
    1.4564    4.2473   -1.2939 C   0  0  0  0  0  0  0  0  0  0  0  0
    0.9272   -3.9591    2.9767 H   0  0  0  0  0  0  0  0  0  0  0  0
   -2.3246    0.0090    1.3659 H   0  0  0  0  0  0  0  0  0  0  0  0
   -4.2987   -1.2166    2.2337 H   0  0  0  0  0  0  0  0  0  0  0  0
   -4.0334   -3.4211    3.3200 H   0  0  0  0  0  0  0  0  0  0  0  0
   -1.7785   -4.4516    3.5624 H   0  0  0  0  0  0  0  0  0  0  0  0
    3.3602   -2.7949    2.0830 H   0  0  0  0  0  0  0  0  0  0  0  0
    0.2715    0.8238    0.6277 H   0  0  0  0  0  0  0  0  0  0  0  0
    3.1235    3.0102   -1.8568 H   0  0  0  0  0  0  0  0  0  0  0  0
    3.3016    3.8269   -0.2713 H   0  0  0  0  0  0  0  0  0  0  0  0
    1.8228    5.1467   -1.7965 H   0  0  0  0  0  0  0  0  0  0  0  0
    0.9107    4.5433   -0.3918 H   0  0  0  0  0  0  0  0  0  0  0  0
    0.7382    3.7434   -1.9491 H   0  0  0  0  0  0  0  0  0  0  0  0
  1  2  1  0  0  0  0
  1  5  2  0  0  0  0
  1 13  1  0  0  0  0
  2  3  2  0  0  0  0
  2  6  1  0  0  0  0
  3  4  1  0  0  0  0
  3  9  1  0  0  0  0
  4  5  1  0  0  0  0
  4 19  1  0  0  0  0
  5 10  1  0  0  0  0
  6  7  2  0  0  0  0
  6 20  1  0  0  0  0
  7  8  1  0  0  0  0
  7 21  1  0  0  0  0
  8  9  2  0  0  0  0
  8 22  1  0  0  0  0
  9 23  1  0  0  0  0
 10 11  2  0  0  0  0
 10 24  1  0  0  0  0
 11 12  1  0  0  0  0
 12 13  2  0  0  0  0
 12 14  1  0  0  0  0
 13 25  1  0  0  0  0
 14 15  2  0  0  0  0
 14 16  1  0  0  0  0
 16 17  1  0  0  0  0
 17 18  1  0  0  0  0
 17 26  1  0  0  0  0
 17 27  1  0  0  0  0
 18 28  1  0  0  0  0
 18 29  1  0  0  0  0
 18 30  1  0  0  0  0
M  END
