8-19
 OpenBabel04201808233D
Structure written by MMmdl.
 39 41  0  0  0  0  0  0  0  0999 V2000
    0.5806   -1.3213    2.7813 C   0  0  0  0  0  0  0  0  0  0  0  0
   -0.7488   -1.5287    3.2689 C   0  0  0  0  0  0  0  0  0  0  0  0
   -0.6813   -2.5065    4.2610 C   0  0  0  0  0  0  0  0  0  0  0  0
    0.6392   -2.8816    4.3747 N   0  0  0  0  0  0  0  0  0  0  0  0
    1.4217   -2.1765    3.4883 C   0  0  0  0  0  0  0  0  0  0  0  0
   -2.0065   -0.9721    2.9557 C   0  0  0  0  0  0  0  0  0  0  0  0
   -3.1440   -1.4120    3.6430 C   0  0  0  0  0  0  0  0  0  0  0  0
   -3.0435   -2.3907    4.6291 C   0  0  0  0  0  0  0  0  0  0  0  0
   -1.8088   -2.9578    4.9578 C   0  0  0  0  0  0  0  0  0  0  0  0
    2.7900   -2.2301    3.2622 C   0  0  0  0  0  0  0  0  0  0  0  0
    3.3299   -1.4211    2.3191 N   0  0  0  0  0  0  0  0  0  0  0  0
    2.5204   -0.5761    1.6154 C   0  0  0  0  0  0  0  0  0  0  0  0
    1.1437   -0.4847    1.8042 C   0  0  0  0  0  0  0  0  0  0  0  0
    3.2317    0.2717    0.5978 C   0  0  0  0  0  0  0  0  0  0  0  0
    4.4398    0.2417    0.3958 O   0  0  0  0  0  0  0  0  0  0  0  0
    2.3520    1.0700   -0.0626 O   0  0  0  0  0  0  0  0  0  0  0  0
    2.9298    1.9254   -1.0631 C   0  0  0  0  0  0  0  0  0  0  0  0
    1.8257    2.7660   -1.7410 C   0  0  0  0  0  0  0  0  0  0  0  0
    0.7944    1.8456   -2.4154 C   0  0  0  0  0  0  0  0  0  0  0  0
    2.4678    3.6711   -2.8038 C   0  0  0  0  0  0  0  0  0  0  0  0
    1.1062    3.6394   -0.6994 C   0  0  0  0  0  0  0  0  0  0  0  0
    0.9853   -3.5796    5.0219 H   0  0  0  0  0  0  0  0  0  0  0  0
   -2.0982   -0.2072    2.1875 H   0  0  0  0  0  0  0  0  0  0  0  0
   -4.1162   -0.9836    3.4030 H   0  0  0  0  0  0  0  0  0  0  0  0
   -3.9402   -2.7203    5.1531 H   0  0  0  0  0  0  0  0  0  0  0  0
   -1.7329   -3.7216    5.7280 H   0  0  0  0  0  0  0  0  0  0  0  0
    3.4586   -2.8905    3.8044 H   0  0  0  0  0  0  0  0  0  0  0  0
    0.5230    0.1953    1.2327 H   0  0  0  0  0  0  0  0  0  0  0  0
    3.4428    1.3051   -1.8088 H   0  0  0  0  0  0  0  0  0  0  0  0
    3.6658    2.5840   -0.5850 H   0  0  0  0  0  0  0  0  0  0  0  0
    0.0266    2.4286   -2.9366 H   0  0  0  0  0  0  0  0  0  0  0  0
    0.2840    1.2079   -1.6853 H   0  0  0  0  0  0  0  0  0  0  0  0
    1.2731    1.1918   -3.1530 H   0  0  0  0  0  0  0  0  0  0  0  0
    1.7146    4.2859   -3.3093 H   0  0  0  0  0  0  0  0  0  0  0  0
    2.9823    3.0790   -3.5690 H   0  0  0  0  0  0  0  0  0  0  0  0
    3.2033    4.3480   -2.3548 H   0  0  0  0  0  0  0  0  0  0  0  0
    0.3472    4.2729   -1.1725 H   0  0  0  0  0  0  0  0  0  0  0  0
    1.8129    4.2976   -0.1817 H   0  0  0  0  0  0  0  0  0  0  0  0
    0.6005    3.0305    0.0580 H   0  0  0  0  0  0  0  0  0  0  0  0
  1  2  1  0  0  0  0
  1  5  2  0  0  0  0
  1 13  1  0  0  0  0
  2  3  2  0  0  0  0
  2  6  1  0  0  0  0
  3  4  1  0  0  0  0
  3  9  1  0  0  0  0
  4  5  1  0  0  0  0
  4 22  1  0  0  0  0
  5 10  1  0  0  0  0
  6  7  2  0  0  0  0
  6 23  1  0  0  0  0
  7  8  1  0  0  0  0
  7 24  1  0  0  0  0
  8  9  2  0  0  0  0
  8 25  1  0  0  0  0
  9 26  1  0  0  0  0
 10 11  2  0  0  0  0
 10 27  1  0  0  0  0
 11 12  1  0  0  0  0
 12 13  2  0  0  0  0
 12 14  1  0  0  0  0
 13 28  1  0  0  0  0
 14 15  2  0  0  0  0
 14 16  1  0  0  0  0
 16 17  1  0  0  0  0
 17 18  1  0  0  0  0
 17 29  1  0  0  0  0
 17 30  1  0  0  0  0
 18 19  1  0  0  0  0
 18 20  1  0  0  0  0
 18 21  1  0  0  0  0
 19 31  1  0  0  0  0
 19 32  1  0  0  0  0
 19 33  1  0  0  0  0
 20 34  1  0  0  0  0
 20 35  1  0  0  0  0
 20 36  1  0  0  0  0
 21 37  1  0  0  0  0
 21 38  1  0  0  0  0
 21 39  1  0  0  0  0
M  END
