2-15
 OpenBabel04201808233D
Structure written by MMmdl.
 34 36  0  0  0  0  0  0  0  0999 V2000
   -4.1073   -1.2107   -0.4956 C   0  0  0  0  0  0  0  0  0  0  0  0
   -3.8200   -2.5269   -0.1552 C   0  0  0  0  0  0  0  0  0  0  0  0
   -2.5263   -2.8980    0.2226 C   0  0  0  0  0  0  0  0  0  0  0  0
   -1.5457   -1.8984    0.2434 C   0  0  0  0  0  0  0  0  0  0  0  0
   -1.8111   -0.5721   -0.0930 C   0  0  0  0  0  0  0  0  0  0  0  0
   -3.1244   -0.2187   -0.4727 C   0  0  0  0  0  0  0  0  0  0  0  0
   -0.2107   -1.9759    0.5698 N   0  0  0  0  0  0  0  0  0  0  0  0
    0.3962   -0.7423    0.4586 C   0  0  0  0  0  0  0  0  0  0  0  0
   -0.5854    0.1555    0.0409 C   0  0  0  0  0  0  0  0  0  0  0  0
    1.7229   -0.3616    0.6945 C   0  0  0  0  0  0  0  0  0  0  0  0
    2.0483    0.9462    0.4874 N   0  0  0  0  0  0  0  0  0  0  0  0
    1.1007    1.8275    0.0684 C   0  0  0  0  0  0  0  0  0  0  0  0
   -0.2286    1.4970   -0.1576 C   0  0  0  0  0  0  0  0  0  0  0  0
   -5.3913   -0.9148   -0.8560 O   0  0  0  0  0  0  0  0  0  0  0  0
    3.5133   -1.9274   -0.0697 C   0  0  0  0  0  0  0  0  0  0  0  0
    2.8200   -1.2952    1.1268 C   0  0  0  0  0  0  0  0  0  0  0  0
    1.5220    3.2558   -0.1130 C   0  0  0  0  0  0  0  0  0  0  0  0
    0.7331    4.1821    0.0706 O   0  0  0  0  0  0  0  0  0  0  0  0
    2.8171    3.5206   -0.4426 O   0  0  0  0  0  0  0  0  0  0  0  0
    3.5976    2.5801   -1.2048 C   0  0  0  0  0  0  0  0  0  0  0  0
   -4.6052   -3.2804   -0.1813 H   0  0  0  0  0  0  0  0  0  0  0  0
   -2.2962   -3.9265    0.4895 H   0  0  0  0  0  0  0  0  0  0  0  0
   -3.3548    0.8089   -0.7399 H   0  0  0  0  0  0  0  0  0  0  0  0
    0.2582   -2.8264    0.8559 H   0  0  0  0  0  0  0  0  0  0  0  0
   -0.9532    2.2369   -0.4787 H   0  0  0  0  0  0  0  0  0  0  0  0
   -5.4413    0.0421   -1.0670 H   0  0  0  0  0  0  0  0  0  0  0  0
    4.3142   -2.5943    0.2648 H   0  0  0  0  0  0  0  0  0  0  0  0
    3.9551   -1.1644   -0.7198 H   0  0  0  0  0  0  0  0  0  0  0  0
    2.8113   -2.5148   -0.6713 H   0  0  0  0  0  0  0  0  0  0  0  0
    2.4119   -2.0762    1.7780 H   0  0  0  0  0  0  0  0  0  0  0  0
    3.5525   -0.7377    1.7222 H   0  0  0  0  0  0  0  0  0  0  0  0
    4.2687    3.1570   -1.8476 H   0  0  0  0  0  0  0  0  0  0  0  0
    2.9724    1.9541   -1.8482 H   0  0  0  0  0  0  0  0  0  0  0  0
    4.2092    1.9777   -0.5282 H   0  0  0  0  0  0  0  0  0  0  0  0
  1  2  2  0  0  0  0
  1  6  1  0  0  0  0
  1 14  1  0  0  0  0
  2  3  1  0  0  0  0
  2 21  1  0  0  0  0
  3  4  2  0  0  0  0
  3 22  1  0  0  0  0
  4  5  1  0  0  0  0
  4  7  1  0  0  0  0
  5  6  2  0  0  0  0
  5  9  1  0  0  0  0
  6 23  1  0  0  0  0
  7  8  1  0  0  0  0
  7 24  1  0  0  0  0
  8  9  2  0  0  0  0
  8 10  1  0  0  0  0
  9 13  1  0  0  0  0
 10 11  2  0  0  0  0
 10 16  1  0  0  0  0
 11 12  1  0  0  0  0
 12 13  2  0  0  0  0
 12 17  1  0  0  0  0
 13 25  1  0  0  0  0
 14 26  1  0  0  0  0
 15 16  1  0  0  0  0
 15 27  1  0  0  0  0
 15 28  1  0  0  0  0
 15 29  1  0  0  0  0
 16 30  1  0  0  0  0
 16 31  1  0  0  0  0
 17 18  2  0  0  0  0
 17 19  1  0  0  0  0
 19 20  1  0  0  0  0
 20 32  1  0  0  0  0
 20 33  1  0  0  0  0
 20 34  1  0  0  0  0
M  END
