2-12a
 OpenBabel04201808233D
Structure written by MMmdl.
 37 40  0  0  0  0  0  0  0  0999 V2000
   -4.3680   -1.1538   -2.2891 C   0  0  0  0  0  0  0  0  0  0  0  0
   -4.1897   -2.5149   -2.0536 C   0  0  0  0  0  0  0  0  0  0  0  0
   -3.0157   -2.9962   -1.4668 C   0  0  0  0  0  0  0  0  0  0  0  0
   -2.0313   -2.0612   -1.1249 C   0  0  0  0  0  0  0  0  0  0  0  0
   -2.1793   -0.6942   -1.3464 C   0  0  0  0  0  0  0  0  0  0  0  0
   -3.3720   -0.2332   -1.9420 C   0  0  0  0  0  0  0  0  0  0  0  0
   -0.7957   -2.2472   -0.5486 N   0  0  0  0  0  0  0  0  0  0  0  0
   -0.1448   -1.0432   -0.3712 C   0  0  0  0  0  0  0  0  0  0  0  0
   -0.9863   -0.0544   -0.8816 C   0  0  0  0  0  0  0  0  0  0  0  0
    1.1121   -0.7515    0.1718 C   0  0  0  0  0  0  0  0  0  0  0  0
    1.5219    0.5476    0.1693 N   0  0  0  0  0  0  0  0  0  0  0  0
    0.7082    1.5221   -0.3233 C   0  0  0  0  0  0  0  0  0  0  0  0
   -0.5534    1.2804   -0.8535 C   0  0  0  0  0  0  0  0  0  0  0  0
    2.0311   -1.7477    0.7294 C   0  0  0  0  0  0  0  0  0  0  0  0
    1.2813    2.9101   -0.2530 C   0  0  0  0  0  0  0  0  0  0  0  0
    2.3883    3.1768    0.2000 O   0  0  0  0  0  0  0  0  0  0  0  0
    0.4084    3.8240   -0.7577 O   0  0  0  0  0  0  0  0  0  0  0  0
    0.8764    5.1768   -0.7284 C   0  0  0  0  0  0  0  0  0  0  0  0
    1.6044   -2.7154    1.6561 C   0  0  0  0  0  0  0  0  0  0  0  0
    2.4947   -3.6578    2.1802 C   0  0  0  0  0  0  0  0  0  0  0  0
    3.8319   -3.6462    1.7928 C   0  0  0  0  0  0  0  0  0  0  0  0
    4.2811   -2.6897    0.8868 C   0  0  0  0  0  0  0  0  0  0  0  0
    3.3894   -1.7482    0.3644 C   0  0  0  0  0  0  0  0  0  0  0  0
   -5.2902   -0.8003   -2.7483 H   0  0  0  0  0  0  0  0  0  0  0  0
   -4.9758   -3.2165   -2.3312 H   0  0  0  0  0  0  0  0  0  0  0  0
   -2.8777   -4.0594   -1.2854 H   0  0  0  0  0  0  0  0  0  0  0  0
   -3.5229    0.8273   -2.1323 H   0  0  0  0  0  0  0  0  0  0  0  0
   -0.4163   -3.1503   -0.2932 H   0  0  0  0  0  0  0  0  0  0  0  0
   -1.1818    2.0742   -1.2400 H   0  0  0  0  0  0  0  0  0  0  0  0
    1.7805    5.2802   -1.3363 H   0  0  0  0  0  0  0  0  0  0  0  0
    1.0621    5.4935    0.3025 H   0  0  0  0  0  0  0  0  0  0  0  0
    0.0959    5.8137   -1.1535 H   0  0  0  0  0  0  0  0  0  0  0  0
    0.5693   -2.7360    1.9961 H   0  0  0  0  0  0  0  0  0  0  0  0
    2.1419   -4.3980    2.8965 H   0  0  0  0  0  0  0  0  0  0  0  0
    4.5251   -4.3792    2.2015 H   0  0  0  0  0  0  0  0  0  0  0  0
    5.3270   -2.6731    0.5850 H   0  0  0  0  0  0  0  0  0  0  0  0
    3.7628   -1.0073   -0.3428 H   0  0  0  0  0  0  0  0  0  0  0  0
  1  2  2  0  0  0  0
  1  6  1  0  0  0  0
  1 24  1  0  0  0  0
  2  3  1  0  0  0  0
  2 25  1  0  0  0  0
  3  4  2  0  0  0  0
  3 26  1  0  0  0  0
  4  5  1  0  0  0  0
  4  7  1  0  0  0  0
  5  6  2  0  0  0  0
  5  9  1  0  0  0  0
  6 27  1  0  0  0  0
  7  8  1  0  0  0  0
  7 28  1  0  0  0  0
  8  9  2  0  0  0  0
  8 10  1  0  0  0  0
  9 13  1  0  0  0  0
 10 11  2  0  0  0  0
 10 14  1  0  0  0  0
 11 12  1  0  0  0  0
 12 13  2  0  0  0  0
 12 15  1  0  0  0  0
 13 29  1  0  0  0  0
 14 19  2  0  0  0  0
 14 23  1  0  0  0  0
 15 16  2  0  0  0  0
 15 17  1  0  0  0  0
 17 18  1  0  0  0  0
 18 30  1  0  0  0  0
 18 31  1  0  0  0  0
 18 32  1  0  0  0  0
 19 20  1  0  0  0  0
 19 33  1  0  0  0  0
 20 21  2  0  0  0  0
 20 34  1  0  0  0  0
 21 22  1  0  0  0  0
 21 35  1  0  0  0  0
 22 23  2  0  0  0  0
 22 36  1  0  0  0  0
 23 37  1  0  0  0  0
M  END
