Ro05-9090
 OpenBabel04201808233D
Structure written by MMmdl.
 38 40  0  0  0  0  0  0  0  0999 V2000
   -2.1326    2.5051   -0.1557 C   0  0  0  0  0  0  0  0  0  0  0  0
   -2.3777    1.1458    0.0440 C   0  0  0  0  0  0  0  0  0  0  0  0
   -1.2828    0.2888    0.2052 C   0  0  0  0  0  0  0  0  0  0  0  0
    0.0387    0.7797    0.1825 C   0  0  0  0  0  0  0  0  0  0  0  0
    0.2856    2.1613    0.0475 C   0  0  0  0  0  0  0  0  0  0  0  0
   -0.8245    3.0027   -0.1518 C   0  0  0  0  0  0  0  0  0  0  0  0
    1.1379   -0.2356    0.2368 C   0  0  0  0  0  0  0  0  0  0  0  0
    2.1827   -0.1423    0.9964 N   0  0  0  0  0  0  0  0  0  0  0  0
    2.3005    1.0702    1.8067 C   0  0  0  0  0  0  0  0  0  0  0  0
    2.6373    2.2360    0.8849 C   0  0  0  0  0  0  0  0  0  0  0  0
    1.5972    2.7409    0.1006 N   0  0  0  0  0  0  0  0  0  0  0  0
    1.0398   -1.4459   -0.6432 C   0  0  0  0  0  0  0  0  0  0  0  0
    3.7757    2.7218    0.8828 O   0  0  0  0  0  0  0  0  0  0  0  0
    0.5425   -1.3523   -1.9496 C   0  0  0  0  0  0  0  0  0  0  0  0
    0.4734   -2.4924   -2.7536 C   0  0  0  0  0  0  0  0  0  0  0  0
    0.9072   -3.7233   -2.2616 C   0  0  0  0  0  0  0  0  0  0  0  0
    1.4164   -3.8183   -0.9669 C   0  0  0  0  0  0  0  0  0  0  0  0
    1.4881   -2.6815   -0.1593 C   0  0  0  0  0  0  0  0  0  0  0  0
    1.8427    3.9790   -0.6352 C   0  0  0  0  0  0  0  0  0  0  0  0
   -3.7854    0.6063    0.0400 C   0  0  0  0  0  0  0  0  0  0  0  0
   -4.2173    0.2751   -1.3164 N   0  0  0  0  0  0  0  0  0  0  0  0
   -2.9633    3.1944   -0.3056 H   0  0  0  0  0  0  0  0  0  0  0  0
   -1.4666   -0.7772    0.3380 H   0  0  0  0  0  0  0  0  0  0  0  0
   -0.7064    4.0780   -0.2716 H   0  0  0  0  0  0  0  0  0  0  0  0
    3.1312    0.9399    2.5091 H   0  0  0  0  0  0  0  0  0  0  0  0
    1.4112    1.2757    2.4132 H   0  0  0  0  0  0  0  0  0  0  0  0
    0.2156   -0.3999   -2.3611 H   0  0  0  0  0  0  0  0  0  0  0  0
    0.0846   -2.4189   -3.7678 H   0  0  0  0  0  0  0  0  0  0  0  0
    0.8527   -4.6102   -2.8910 H   0  0  0  0  0  0  0  0  0  0  0  0
    1.7596   -4.7785   -0.5859 H   0  0  0  0  0  0  0  0  0  0  0  0
    1.8878   -2.7678    0.8493 H   0  0  0  0  0  0  0  0  0  0  0  0
    2.9117    4.1246   -0.8175 H   0  0  0  0  0  0  0  0  0  0  0  0
    1.4833    4.8245   -0.0405 H   0  0  0  0  0  0  0  0  0  0  0  0
    1.3406    3.9497   -1.6076 H   0  0  0  0  0  0  0  0  0  0  0  0
   -4.4672    1.3494    0.4694 H   0  0  0  0  0  0  0  0  0  0  0  0
   -3.8501   -0.2818    0.6797 H   0  0  0  0  0  0  0  0  0  0  0  0
   -5.1500   -0.1461   -1.2476 H   0  0  0  0  0  0  0  0  0  0  0  0
   -3.6322   -0.4981   -1.6496 H   0  0  0  0  0  0  0  0  0  0  0  0
  1  2  2  0  0  0  0
  1  6  1  0  0  0  0
  1 22  1  0  0  0  0
  2  3  1  0  0  0  0
  2 20  1  0  0  0  0
  3  4  2  0  0  0  0
  3 23  1  0  0  0  0
  4  5  1  0  0  0  0
  4  7  1  0  0  0  0
  5  6  2  0  0  0  0
  5 11  1  0  0  0  0
  6 24  1  0  0  0  0
  7  8  2  0  0  0  0
  7 12  1  0  0  0  0
  8  9  1  0  0  0  0
  9 10  1  0  0  0  0
  9 25  1  0  0  0  0
  9 26  1  0  0  0  0
 10 11  1  0  0  0  0
 10 13  2  0  0  0  0
 11 19  1  0  0  0  0
 12 14  2  0  0  0  0
 12 18  1  0  0  0  0
 14 15  1  0  0  0  0
 14 27  1  0  0  0  0
 15 16  2  0  0  0  0
 15 28  1  0  0  0  0
 16 17  1  0  0  0  0
 16 29  1  0  0  0  0
 17 18  2  0  0  0  0
 17 30  1  0  0  0  0
 18 31  1  0  0  0  0
 19 32  1  0  0  0  0
 19 33  1  0  0  0  0
 19 34  1  0  0  0  0
 20 21  1  0  0  0  0
 20 35  1  0  0  0  0
 20 36  1  0  0  0  0
 21 37  1  0  0  0  0
 21 38  1  0  0  0  0
M  END
