2-27
 OpenBabel04201808233D
Structure written by MMmdl.
 26 28  0  0  0  0  0  0  0  0999 V2000
   -3.6549   -0.7876   -0.6438 C   0  0  0  0  0  0  0  0  0  0  0  0
   -3.5832   -2.1372   -0.3069 C   0  0  0  0  0  0  0  0  0  0  0  0
   -2.3826   -2.7090    0.1245 C   0  0  0  0  0  0  0  0  0  0  0  0
   -1.2594   -1.8768    0.2049 C   0  0  0  0  0  0  0  0  0  0  0  0
   -1.2987   -0.5222   -0.1251 C   0  0  0  0  0  0  0  0  0  0  0  0
   -2.5222    0.0306   -0.5578 C   0  0  0  0  0  0  0  0  0  0  0  0
    0.0308   -2.1653    0.5915 N   0  0  0  0  0  0  0  0  0  0  0  0
    0.8214   -1.0405    0.5207 C   0  0  0  0  0  0  0  0  0  0  0  0
    0.0164    0.0053    0.0746 C   0  0  0  0  0  0  0  0  0  0  0  0
    2.1683   -0.8717    0.8133 C   0  0  0  0  0  0  0  0  0  0  0  0
    2.7235    0.3549    0.6601 N   0  0  0  0  0  0  0  0  0  0  0  0
    1.9469    1.3836    0.2249 C   0  0  0  0  0  0  0  0  0  0  0  0
    0.5956    1.2739   -0.0827 C   0  0  0  0  0  0  0  0  0  0  0  0
    2.6254    2.7090    0.0784 C   0  0  0  0  0  0  0  0  0  0  0  0
    2.0122    3.7067   -0.3097 O   0  0  0  0  0  0  0  0  0  0  0  0
    4.0903    2.7734    0.4254 C   0  0  0  0  0  0  0  0  0  0  0  0
   -4.6007   -0.3628   -0.9776 H   0  0  0  0  0  0  0  0  0  0  0  0
   -4.4756   -2.7582   -0.3802 H   0  0  0  0  0  0  0  0  0  0  0  0
   -2.3290   -3.7628    0.3868 H   0  0  0  0  0  0  0  0  0  0  0  0
   -2.5911    1.0833   -0.8238 H   0  0  0  0  0  0  0  0  0  0  0  0
    0.3521   -3.0792    0.8869 H   0  0  0  0  0  0  0  0  0  0  0  0
    2.8079   -1.6759    1.1615 H   0  0  0  0  0  0  0  0  0  0  0  0
    0.0166    2.1233   -0.4267 H   0  0  0  0  0  0  0  0  0  0  0  0
    4.4525    3.7948    0.2729 H   0  0  0  0  0  0  0  0  0  0  0  0
    4.6620    2.1072   -0.2261 H   0  0  0  0  0  0  0  0  0  0  0  0
    4.2413    2.5105    1.4757 H   0  0  0  0  0  0  0  0  0  0  0  0
  1  2  2  0  0  0  0
  1  6  1  0  0  0  0
  1 17  1  0  0  0  0
  2  3  1  0  0  0  0
  2 18  1  0  0  0  0
  3  4  2  0  0  0  0
  3 19  1  0  0  0  0
  4  5  1  0  0  0  0
  4  7  1  0  0  0  0
  5  6  2  0  0  0  0
  5  9  1  0  0  0  0
  6 20  1  0  0  0  0
  7  8  1  0  0  0  0
  7 21  1  0  0  0  0
  8  9  2  0  0  0  0
  8 10  1  0  0  0  0
  9 13  1  0  0  0  0
 10 11  2  0  0  0  0
 10 22  1  0  0  0  0
 11 12  1  0  0  0  0
 12 13  2  0  0  0  0
 12 14  1  0  0  0  0
 13 23  1  0  0  0  0
 14 15  2  0  0  0  0
 14 16  1  0  0  0  0
 16 24  1  0  0  0  0
 16 25  1  0  0  0  0
 16 26  1  0  0  0  0
M  END
