2-9
 OpenBabel04201808233D
Structure written by MMmdl.
 28 30  0  0  0  0  0  0  0  0999 V2000
   -3.0315   -1.3549   -0.9139 C   0  0  0  0  0  0  0  0  0  0  0  0
   -2.9705   -2.7421   -0.9650 C   0  0  0  0  0  0  0  0  0  0  0  0
   -1.7682   -3.4114   -0.7188 C   0  0  0  0  0  0  0  0  0  0  0  0
   -0.6422   -2.6333   -0.4222 C   0  0  0  0  0  0  0  0  0  0  0  0
   -0.6803   -1.2398   -0.3652 C   0  0  0  0  0  0  0  0  0  0  0  0
   -1.9051   -0.5841   -0.6173 C   0  0  0  0  0  0  0  0  0  0  0  0
    0.6503   -3.0181   -0.1419 N   0  0  0  0  0  0  0  0  0  0  0  0
    1.4437   -1.9181    0.0932 C   0  0  0  0  0  0  0  0  0  0  0  0
    0.6390   -0.7896   -0.0390 C   0  0  0  0  0  0  0  0  0  0  0  0
    2.7928   -1.8381    0.4084 C   0  0  0  0  0  0  0  0  0  0  0  0
    3.3500   -0.6174    0.5952 N   0  0  0  0  0  0  0  0  0  0  0  0
    2.5767    0.5011    0.4701 C   0  0  0  0  0  0  0  0  0  0  0  0
    1.2204    0.4740    0.1555 C   0  0  0  0  0  0  0  0  0  0  0  0
   -4.2371   -0.7636   -1.1647 O   0  0  0  0  0  0  0  0  0  0  0  0
    3.3057    1.7961    0.7007 C   0  0  0  0  0  0  0  0  0  0  0  0
    4.4969    1.8762    0.9774 O   0  0  0  0  0  0  0  0  0  0  0  0
    2.4678    2.8592    0.5615 O   0  0  0  0  0  0  0  0  0  0  0  0
    3.0832    4.1357    0.7663 C   0  0  0  0  0  0  0  0  0  0  0  0
   -3.8639   -3.3187   -1.1985 H   0  0  0  0  0  0  0  0  0  0  0  0
   -1.7154   -4.4967   -0.7575 H   0  0  0  0  0  0  0  0  0  0  0  0
   -1.9587    0.5003   -0.5786 H   0  0  0  0  0  0  0  0  0  0  0  0
    0.9713   -3.9783   -0.1133 H   0  0  0  0  0  0  0  0  0  0  0  0
    3.4330   -2.7075    0.5147 H   0  0  0  0  0  0  0  0  0  0  0  0
    0.6286    1.3768    0.0617 H   0  0  0  0  0  0  0  0  0  0  0  0
   -4.1263    0.2088   -1.0938 H   0  0  0  0  0  0  0  0  0  0  0  0
    3.8777    4.2978    0.0314 H   0  0  0  0  0  0  0  0  0  0  0  0
    3.4744    4.2108    1.7856 H   0  0  0  0  0  0  0  0  0  0  0  0
    2.3189    4.9054    0.6287 H   0  0  0  0  0  0  0  0  0  0  0  0
  1  2  2  0  0  0  0
  1  6  1  0  0  0  0
  1 14  1  0  0  0  0
  2  3  1  0  0  0  0
  2 19  1  0  0  0  0
  3  4  2  0  0  0  0
  3 20  1  0  0  0  0
  4  5  1  0  0  0  0
  4  7  1  0  0  0  0
  5  6  2  0  0  0  0
  5  9  1  0  0  0  0
  6 21  1  0  0  0  0
  7  8  1  0  0  0  0
  7 22  1  0  0  0  0
  8  9  2  0  0  0  0
  8 10  1  0  0  0  0
  9 13  1  0  0  0  0
 10 11  2  0  0  0  0
 10 23  1  0  0  0  0
 11 12  1  0  0  0  0
 12 13  2  0  0  0  0
 12 15  1  0  0  0  0
 13 24  1  0  0  0  0
 14 25  1  0  0  0  0
 15 16  2  0  0  0  0
 15 17  1  0  0  0  0
 17 18  1  0  0  0  0
 18 26  1  0  0  0  0
 18 27  1  0  0  0  0
 18 28  1  0  0  0  0
M  END
