5-7
 OpenBabel04201808233D
Structure written by MMmdl.
 34 36  0  0  0  0  0  0  0  0999 V2000
   -3.4796   -3.9933   -1.3872 C   0  0  0  0  0  0  0  0  0  0  0  0
   -3.1123   -5.2339   -0.8712 C   0  0  0  0  0  0  0  0  0  0  0  0
   -1.9091   -5.3982   -0.1786 C   0  0  0  0  0  0  0  0  0  0  0  0
   -1.0903   -4.2729   -0.0239 C   0  0  0  0  0  0  0  0  0  0  0  0
   -1.4297   -3.0176   -0.5287 C   0  0  0  0  0  0  0  0  0  0  0  0
   -2.6492   -2.8781   -1.2237 C   0  0  0  0  0  0  0  0  0  0  0  0
    0.1298   -4.1446    0.6029 N   0  0  0  0  0  0  0  0  0  0  0  0
    0.5846   -2.8484    0.5172 C   0  0  0  0  0  0  0  0  0  0  0  0
   -0.3709   -2.1184   -0.1863 C   0  0  0  0  0  0  0  0  0  0  0  0
    1.7515   -2.2710    1.0005 C   0  0  0  0  0  0  0  0  0  0  0  0
    1.9697   -0.9505    0.7809 N   0  0  0  0  0  0  0  0  0  0  0  0
    1.0472   -0.2365    0.0995 C   0  0  0  0  0  0  0  0  0  0  0  0
   -0.1348   -0.7533   -0.4079 C   0  0  0  0  0  0  0  0  0  0  0  0
    1.2615    1.1097   -0.1290 O   0  0  0  0  0  0  0  0  0  0  0  0
    3.9633    5.1841    0.3026 C   0  0  0  0  0  0  0  0  0  0  0  0
    3.8733    3.7030    0.6327 C   0  0  0  0  0  0  0  0  0  0  0  0
    2.5879    3.0860    0.0884 C   0  0  0  0  0  0  0  0  0  0  0  0
    2.4927    1.5977    0.4164 C   0  0  0  0  0  0  0  0  0  0  0  0
   -4.4217   -3.8880   -1.9236 H   0  0  0  0  0  0  0  0  0  0  0  0
   -3.7718   -6.0903   -1.0086 H   0  0  0  0  0  0  0  0  0  0  0  0
   -1.6246   -6.3676    0.2234 H   0  0  0  0  0  0  0  0  0  0  0  0
   -2.9473   -1.9145   -1.6314 H   0  0  0  0  0  0  0  0  0  0  0  0
    0.6226   -4.9004    1.0629 H   0  0  0  0  0  0  0  0  0  0  0  0
    2.5067   -2.8229    1.5499 H   0  0  0  0  0  0  0  0  0  0  0  0
   -0.8380   -0.1296   -0.9478 H   0  0  0  0  0  0  0  0  0  0  0  0
    4.8908    5.6058    0.7022 H   0  0  0  0  0  0  0  0  0  0  0  0
    3.1240    5.7350    0.7389 H   0  0  0  0  0  0  0  0  0  0  0  0
    3.9553    5.3460   -0.7800 H   0  0  0  0  0  0  0  0  0  0  0  0
    3.9169    3.5736    1.7204 H   0  0  0  0  0  0  0  0  0  0  0  0
    4.7426    3.1866    0.2093 H   0  0  0  0  0  0  0  0  0  0  0  0
    2.5320    3.2218   -0.9990 H   0  0  0  0  0  0  0  0  0  0  0  0
    1.7133    3.6048    0.5007 H   0  0  0  0  0  0  0  0  0  0  0  0
    3.3411    1.0687   -0.0354 H   0  0  0  0  0  0  0  0  0  0  0  0
    2.5031    1.4618    1.5050 H   0  0  0  0  0  0  0  0  0  0  0  0
  1  2  2  0  0  0  0
  1  6  1  0  0  0  0
  1 19  1  0  0  0  0
  2  3  1  0  0  0  0
  2 20  1  0  0  0  0
  3  4  2  0  0  0  0
  3 21  1  0  0  0  0
  4  5  1  0  0  0  0
  4  7  1  0  0  0  0
  5  6  2  0  0  0  0
  5  9  1  0  0  0  0
  6 22  1  0  0  0  0
  7  8  1  0  0  0  0
  7 23  1  0  0  0  0
  8  9  2  0  0  0  0
  8 10  1  0  0  0  0
  9 13  1  0  0  0  0
 10 11  2  0  0  0  0
 10 24  1  0  0  0  0
 11 12  1  0  0  0  0
 12 13  2  0  0  0  0
 12 14  1  0  0  0  0
 13 25  1  0  0  0  0
 14 18  1  0  0  0  0
 15 16  1  0  0  0  0
 15 26  1  0  0  0  0
 15 27  1  0  0  0  0
 15 28  1  0  0  0  0
 16 17  1  0  0  0  0
 16 29  1  0  0  0  0
 16 30  1  0  0  0  0
 17 18  1  0  0  0  0
 17 31  1  0  0  0  0
 17 32  1  0  0  0  0
 18 33  1  0  0  0  0
 18 34  1  0  0  0  0
M  END
