5-12
 OpenBabel04201808233D
Structure written by MMmdl.
 33 35  0  0  0  0  0  0  0  0999 V2000
   -3.2846   -2.7641   -1.2505 C   0  0  0  0  0  0  0  0  0  0  0  0
   -3.2245   -4.0255   -0.6628 C   0  0  0  0  0  0  0  0  0  0  0  0
   -2.0629   -4.4671   -0.0224 C   0  0  0  0  0  0  0  0  0  0  0  0
   -0.9664   -3.5966    0.0057 C   0  0  0  0  0  0  0  0  0  0  0  0
   -0.9948   -2.3278   -0.5733 C   0  0  0  0  0  0  0  0  0  0  0  0
   -2.1790   -1.9060   -1.2135 C   0  0  0  0  0  0  0  0  0  0  0  0
    0.2844   -3.7647    0.5580 N   0  0  0  0  0  0  0  0  0  0  0  0
    1.0592   -2.6458    0.3528 C   0  0  0  0  0  0  0  0  0  0  0  0
    0.2861   -1.7287   -0.3536 C   0  0  0  0  0  0  0  0  0  0  0  0
    2.3662   -2.3761    0.7323 C   0  0  0  0  0  0  0  0  0  0  0  0
    2.9106   -1.1770    0.4038 N   0  0  0  0  0  0  0  0  0  0  0  0
    2.1769   -0.2676   -0.2889 C   0  0  0  0  0  0  0  0  0  0  0  0
    0.8606   -0.4922   -0.6880 C   0  0  0  0  0  0  0  0  0  0  0  0
    2.8078    4.5343    1.0977 C   0  0  0  0  0  0  0  0  0  0  0  0
    3.1690    3.4555    0.0894 C   0  0  0  0  0  0  0  0  0  0  0  0
    2.4750    2.1324    0.4119 C   0  0  0  0  0  0  0  0  0  0  0  0
    2.8427    1.0506   -0.6064 C   0  0  0  0  0  0  0  0  0  0  0  0
   -4.1999   -2.4403   -1.7441 H   0  0  0  0  0  0  0  0  0  0  0  0
   -4.0953   -4.6793   -0.7019 H   0  0  0  0  0  0  0  0  0  0  0  0
   -2.0182   -5.4522    0.4357 H   0  0  0  0  0  0  0  0  0  0  0  0
   -2.2382   -0.9231   -1.6761 H   0  0  0  0  0  0  0  0  0  0  0  0
    0.5902   -4.5967    1.0478 H   0  0  0  0  0  0  0  0  0  0  0  0
    2.9843   -3.0766    1.2837 H   0  0  0  0  0  0  0  0  0  0  0  0
    0.3004    0.2593   -1.2355 H   0  0  0  0  0  0  0  0  0  0  0  0
    3.3145    5.4717    0.8476 H   0  0  0  0  0  0  0  0  0  0  0  0
    3.1107    4.2436    2.1086 H   0  0  0  0  0  0  0  0  0  0  0  0
    1.7293    4.7218    1.1023 H   0  0  0  0  0  0  0  0  0  0  0  0
    4.2562    3.3150    0.0871 H   0  0  0  0  0  0  0  0  0  0  0  0
    2.8828    3.7909   -0.9142 H   0  0  0  0  0  0  0  0  0  0  0  0
    1.3880    2.2821    0.4230 H   0  0  0  0  0  0  0  0  0  0  0  0
    2.7581    1.8037    1.4200 H   0  0  0  0  0  0  0  0  0  0  0  0
    2.5634    1.3649   -1.6196 H   0  0  0  0  0  0  0  0  0  0  0  0
    3.9302    0.9046   -0.6157 H   0  0  0  0  0  0  0  0  0  0  0  0
  1  2  2  0  0  0  0
  1  6  1  0  0  0  0
  1 18  1  0  0  0  0
  2  3  1  0  0  0  0
  2 19  1  0  0  0  0
  3  4  2  0  0  0  0
  3 20  1  0  0  0  0
  4  5  1  0  0  0  0
  4  7  1  0  0  0  0
  5  6  2  0  0  0  0
  5  9  1  0  0  0  0
  6 21  1  0  0  0  0
  7  8  1  0  0  0  0
  7 22  1  0  0  0  0
  8  9  2  0  0  0  0
  8 10  1  0  0  0  0
  9 13  1  0  0  0  0
 10 11  2  0  0  0  0
 10 23  1  0  0  0  0
 11 12  1  0  0  0  0
 12 13  2  0  0  0  0
 12 17  1  0  0  0  0
 13 24  1  0  0  0  0
 14 15  1  0  0  0  0
 14 25  1  0  0  0  0
 14 26  1  0  0  0  0
 14 27  1  0  0  0  0
 15 16  1  0  0  0  0
 15 28  1  0  0  0  0
 15 29  1  0  0  0  0
 16 17  1  0  0  0  0
 16 30  1  0  0  0  0
 16 31  1  0  0  0  0
 17 32  1  0  0  0  0
 17 33  1  0  0  0  0
M  END
