3-17
 OpenBabel04201808233D
Structure written by MMmdl.
 30 32  0  0  0  0  0  0  0  0999 V2000
   -0.7869    0.1094    1.7396 C   0  0  0  0  0  0  0  0  0  0  0  0
   -2.1217   -0.0718    2.2231 C   0  0  0  0  0  0  0  0  0  0  0  0
   -2.1585   -1.2923    2.8974 C   0  0  0  0  0  0  0  0  0  0  0  0
   -0.8946   -1.8355    2.8265 N   0  0  0  0  0  0  0  0  0  0  0  0
   -0.0474   -1.0026    2.1318 C   0  0  0  0  0  0  0  0  0  0  0  0
   -3.3049    0.6929    2.1495 C   0  0  0  0  0  0  0  0  0  0  0  0
   -4.4743    0.2111    2.7500 C   0  0  0  0  0  0  0  0  0  0  0  0
   -4.4783   -1.0119    3.4167 C   0  0  0  0  0  0  0  0  0  0  0  0
   -3.3192   -1.7885    3.5037 C   0  0  0  0  0  0  0  0  0  0  0  0
    1.2980   -1.1434    1.8249 C   0  0  0  0  0  0  0  0  0  0  0  0
    1.9153   -0.1631    1.1181 N   0  0  0  0  0  0  0  0  0  0  0  0
    1.2148    0.9329    0.7150 C   0  0  0  0  0  0  0  0  0  0  0  0
   -0.1373    1.1158    1.0070 C   0  0  0  0  0  0  0  0  0  0  0  0
    1.9403    2.0212   -0.0587 C   0  0  0  0  0  0  0  0  0  0  0  0
    3.2542    1.5865   -0.4474 O   0  0  0  0  0  0  0  0  0  0  0  0
    3.9750    2.5234   -1.1177 C   0  0  0  0  0  0  0  0  0  0  0  0
    3.5840    3.6515   -1.3972 O   0  0  0  0  0  0  0  0  0  0  0  0
    5.3261    1.9816   -1.4713 C   0  0  0  0  0  0  0  0  0  0  0  0
   -0.6267   -2.7242    3.2316 H   0  0  0  0  0  0  0  0  0  0  0  0
   -3.3146    1.6496    1.6317 H   0  0  0  0  0  0  0  0  0  0  0  0
   -5.3888    0.8001    2.6944 H   0  0  0  0  0  0  0  0  0  0  0  0
   -5.3981   -1.3703    3.8781 H   0  0  0  0  0  0  0  0  0  0  0  0
   -3.3246   -2.7428    4.0249 H   0  0  0  0  0  0  0  0  0  0  0  0
    1.8918   -2.0010    2.1227 H   0  0  0  0  0  0  0  0  0  0  0  0
   -0.6695    2.0044    0.6811 H   0  0  0  0  0  0  0  0  0  0  0  0
    2.0237    2.9065    0.5827 H   0  0  0  0  0  0  0  0  0  0  0  0
    1.3647    2.2593   -0.9611 H   0  0  0  0  0  0  0  0  0  0  0  0
    5.8937    2.7462   -2.0094 H   0  0  0  0  0  0  0  0  0  0  0  0
    5.2173    1.1081   -2.1188 H   0  0  0  0  0  0  0  0  0  0  0  0
    5.8704    1.7206   -0.5603 H   0  0  0  0  0  0  0  0  0  0  0  0
  1  2  1  0  0  0  0
  1  5  2  0  0  0  0
  1 13  1  0  0  0  0
  2  3  2  0  0  0  0
  2  6  1  0  0  0  0
  3  4  1  0  0  0  0
  3  9  1  0  0  0  0
  4  5  1  0  0  0  0
  4 19  1  0  0  0  0
  5 10  1  0  0  0  0
  6  7  2  0  0  0  0
  6 20  1  0  0  0  0
  7  8  1  0  0  0  0
  7 21  1  0  0  0  0
  8  9  2  0  0  0  0
  8 22  1  0  0  0  0
  9 23  1  0  0  0  0
 10 11  2  0  0  0  0
 10 24  1  0  0  0  0
 11 12  1  0  0  0  0
 12 13  2  0  0  0  0
 12 14  1  0  0  0  0
 13 25  1  0  0  0  0
 14 15  1  0  0  0  0
 14 26  1  0  0  0  0
 14 27  1  0  0  0  0
 15 16  1  0  0  0  0
 16 17  2  0  0  0  0
 16 18  1  0  0  0  0
 18 28  1  0  0  0  0
 18 29  1  0  0  0  0
 18 30  1  0  0  0  0
M  END
