6-5
 OpenBabel04201808233D
Structure written by MMmdl.
 21 23  0  0  0  0  0  0  0  0999 V2000
    1.1594    0.6586    0.9308 C   0  0  0  0  0  0  0  0  0  0  0  0
   -0.2565    0.6766    1.1365 C   0  0  0  0  0  0  0  0  0  0  0  0
   -0.6520   -0.6279    1.4316 C   0  0  0  0  0  0  0  0  0  0  0  0
    0.4795   -1.4132    1.4071 N   0  0  0  0  0  0  0  0  0  0  0  0
    1.5890   -0.6560    1.1061 C   0  0  0  0  0  0  0  0  0  0  0  0
   -1.2404    1.6867    1.0985 C   0  0  0  0  0  0  0  0  0  0  0  0
   -2.5763    1.3562    1.3558 C   0  0  0  0  0  0  0  0  0  0  0  0
   -2.9395    0.0435    1.6476 C   0  0  0  0  0  0  0  0  0  0  0  0
   -1.9834   -0.9754    1.6912 C   0  0  0  0  0  0  0  0  0  0  0  0
    2.9220   -1.0280    0.9772 C   0  0  0  0  0  0  0  0  0  0  0  0
    3.8405   -0.0809    0.6699 N   0  0  0  0  0  0  0  0  0  0  0  0
    3.4199    1.1936    0.5005 C   0  0  0  0  0  0  0  0  0  0  0  0
    2.1135    1.6363    0.6126 C   0  0  0  0  0  0  0  0  0  0  0  0
    4.6836    2.2929    0.1147 Cl  0  0  0  0  0  0  0  0  0  0  0  0
    0.4920   -2.4100    1.5863 H   0  0  0  0  0  0  0  0  0  0  0  0
   -0.9695    2.7157    0.8718 H   0  0  0  0  0  0  0  0  0  0  0  0
   -3.3376    2.1345    1.3271 H   0  0  0  0  0  0  0  0  0  0  0  0
   -3.9843   -0.1944    1.8450 H   0  0  0  0  0  0  0  0  0  0  0  0
   -2.2693   -1.9995    1.9193 H   0  0  0  0  0  0  0  0  0  0  0  0
    3.2714   -2.0464    1.1107 H   0  0  0  0  0  0  0  0  0  0  0  0
    1.8461    2.6751    0.4634 H   0  0  0  0  0  0  0  0  0  0  0  0
  1  2  1  0  0  0  0
  1  5  2  0  0  0  0
  1 13  1  0  0  0  0
  2  3  2  0  0  0  0
  2  6  1  0  0  0  0
  3  4  1  0  0  0  0
  3  9  1  0  0  0  0
  4  5  1  0  0  0  0
  4 15  1  0  0  0  0
  5 10  1  0  0  0  0
  6  7  2  0  0  0  0
  6 16  1  0  0  0  0
  7  8  1  0  0  0  0
  7 17  1  0  0  0  0
  8  9  2  0  0  0  0
  8 18  1  0  0  0  0
  9 19  1  0  0  0  0
 10 11  2  0  0  0  0
 10 20  1  0  0  0  0
 11 12  1  0  0  0  0
 12 13  2  0  0  0  0
 12 14  1  0  0  0  0
 13 21  1  0  0  0  0
M  END
