6-6
 OpenBabel04201808233D
Structure written by MMmdl.
 23 25  0  0  0  0  0  0  0  0999 V2000
    0.7095    0.4958    0.9282 C   0  0  0  0  0  0  0  0  0  0  0  0
   -0.6640    0.2509    1.2486 C   0  0  0  0  0  0  0  0  0  0  0  0
   -0.7542   -1.0559    1.7270 C   0  0  0  0  0  0  0  0  0  0  0  0
    0.5157   -1.5885    1.6994 N   0  0  0  0  0  0  0  0  0  0  0  0
    1.4183   -0.6664    1.2192 C   0  0  0  0  0  0  0  0  0  0  0  0
   -1.8415    1.0240    1.1751 C   0  0  0  0  0  0  0  0  0  0  0  0
   -3.0589    0.4641    1.5807 C   0  0  0  0  0  0  0  0  0  0  0  0
   -3.1159   -0.8445    2.0543 C   0  0  0  0  0  0  0  0  0  0  0  0
   -1.9632   -1.6312    2.1368 C   0  0  0  0  0  0  0  0  0  0  0  0
    2.7873   -0.7732    1.0239 C   0  0  0  0  0  0  0  0  0  0  0  0
    3.4634    0.2925    0.5317 N   0  0  0  0  0  0  0  0  0  0  0  0
    2.7894    1.4532    0.2355 C   0  0  0  0  0  0  0  0  0  0  0  0
    1.4127    1.6004    0.4174 C   0  0  0  0  0  0  0  0  0  0  0  0
    3.5209    2.6347   -0.3068 N   0  3  0  0  0  0  0  0  0  0  0  0
    2.8888    3.6782   -0.5709 O   0  0  0  0  0  0  0  0  0  0  0  0
    4.7531    2.5193   -0.4730 O   0  5  0  0  0  0  0  0  0  0  0  0
    0.7515   -2.5289    1.9924 H   0  0  0  0  0  0  0  0  0  0  0  0
   -1.8105    2.0474    0.8070 H   0  0  0  0  0  0  0  0  0  0  0  0
   -3.9694    1.0593    1.5247 H   0  0  0  0  0  0  0  0  0  0  0  0
   -4.0727   -1.2629    2.3654 H   0  0  0  0  0  0  0  0  0  0  0  0
   -2.0101   -2.6527    2.5067 H   0  0  0  0  0  0  0  0  0  0  0  0
    3.3533   -1.6718    1.2456 H   0  0  0  0  0  0  0  0  0  0  0  0
    0.8892    2.5198    0.1810 H   0  0  0  0  0  0  0  0  0  0  0  0
  1  2  1  0  0  0  0
  1  5  2  0  0  0  0
  1 13  1  0  0  0  0
  2  3  2  0  0  0  0
  2  6  1  0  0  0  0
  3  4  1  0  0  0  0
  3  9  1  0  0  0  0
  4  5  1  0  0  0  0
  4 17  1  0  0  0  0
  5 10  1  0  0  0  0
  6  7  2  0  0  0  0
  6 18  1  0  0  0  0
  7  8  1  0  0  0  0
  7 19  1  0  0  0  0
  8  9  2  0  0  0  0
  8 20  1  0  0  0  0
  9 21  1  0  0  0  0
 10 11  2  0  0  0  0
 10 22  1  0  0  0  0
 11 12  1  0  0  0  0
 12 13  2  0  0  0  0
 12 14  1  0  0  0  0
 13 23  1  0  0  0  0
 14 15  2  0  0  0  0
 14 16  1  0  0  0  0
M  CHG  2  14   1  16  -1
M  END
