6-7
 OpenBabel04201808233D
Structure written by MMmdl.
 23 25  0  0  0  0  0  0  0  0999 V2000
    0.0363    0.3188    0.6219 C   0  0  0  0  0  0  0  0  0  0  0  0
   -1.3178    0.0326    0.9834 C   0  0  0  0  0  0  0  0  0  0  0  0
   -1.3617   -1.2915    1.4194 C   0  0  0  0  0  0  0  0  0  0  0  0
   -0.0835   -1.7910    1.3245 N   0  0  0  0  0  0  0  0  0  0  0  0
    0.7804   -0.8364    0.8440 C   0  0  0  0  0  0  0  0  0  0  0  0
   -2.5131    0.7808    0.9802 C   0  0  0  0  0  0  0  0  0  0  0  0
   -3.7017    0.1802    1.4109 C   0  0  0  0  0  0  0  0  0  0  0  0
   -3.7124   -1.1446    1.8410 C   0  0  0  0  0  0  0  0  0  0  0  0
   -2.5412   -1.9077    1.8537 C   0  0  0  0  0  0  0  0  0  0  0  0
    2.1415   -0.8968    0.5865 C   0  0  0  0  0  0  0  0  0  0  0  0
    2.7694    0.2013    0.1080 N   0  0  0  0  0  0  0  0  0  0  0  0
    2.0680    1.3401   -0.1042 C   0  0  0  0  0  0  0  0  0  0  0  0
    0.7009    1.4492    0.1238 C   0  0  0  0  0  0  0  0  0  0  0  0
    2.7455    2.4513   -0.6305 N   0  0  0  0  0  0  0  0  0  0  0  0
    3.8628    2.5352   -0.2802 C   0  0  0  0  0  0  0  0  0  0  0  0
    5.3884    2.7488    0.1647 S   0  0  0  0  0  0  0  0  0  0  0  0
    0.1789   -2.7336    1.5740 H   0  0  0  0  0  0  0  0  0  0  0  0
   -2.5160    1.8144    0.6468 H   0  0  0  0  0  0  0  0  0  0  0  0
   -4.6247    0.7551    1.4090 H   0  0  0  0  0  0  0  0  0  0  0  0
   -4.6465   -1.5932    2.1721 H   0  0  0  0  0  0  0  0  0  0  0  0
   -2.5553   -2.9397    2.1894 H   0  0  0  0  0  0  0  0  0  0  0  0
    2.7466   -1.7813    0.7443 H   0  0  0  0  0  0  0  0  0  0  0  0
    0.1758    2.3748   -0.0778 H   0  0  0  0  0  0  0  0  0  0  0  0
  1  2  1  0  0  0  0
  1  5  2  0  0  0  0
  1 13  1  0  0  0  0
  2  3  2  0  0  0  0
  2  6  1  0  0  0  0
  3  4  1  0  0  0  0
  3  9  1  0  0  0  0
  4  5  1  0  0  0  0
  4 17  1  0  0  0  0
  5 10  1  0  0  0  0
  6  7  2  0  0  0  0
  6 18  1  0  0  0  0
  7  8  1  0  0  0  0
  7 19  1  0  0  0  0
  8  9  2  0  0  0  0
  8 20  1  0  0  0  0
  9 21  1  0  0  0  0
 10 11  2  0  0  0  0
 10 22  1  0  0  0  0
 11 12  1  0  0  0  0
 12 13  2  0  0  0  0
 12 14  1  0  0  0  0
 13 23  1  0  0  0  0
 14 15  2  0  0  0  0
 15 16  2  0  0  0  0
M  END
