6-11
 OpenBabel04201808233D
Structure written by MMmdl.
 21 23  0  0  0  0  0  0  0  0999 V2000
    1.0184    0.6987    0.7067 C   0  0  0  0  0  0  0  0  0  0  0  0
   -0.3740    0.4185    0.8819 C   0  0  0  0  0  0  0  0  0  0  0  0
   -0.4965   -0.9485    1.1308 C   0  0  0  0  0  0  0  0  0  0  0  0
    0.7732   -1.4827    1.1083 N   0  0  0  0  0  0  0  0  0  0  0  0
    1.7068   -0.5040    0.8533 C   0  0  0  0  0  0  0  0  0  0  0  0
   -1.5447    1.2051    0.8515 C   0  0  0  0  0  0  0  0  0  0  0  0
   -2.7875    0.5986    1.0699 C   0  0  0  0  0  0  0  0  0  0  0  0
   -2.8764   -0.7695    1.3158 C   0  0  0  0  0  0  0  0  0  0  0  0
   -1.7314   -1.5708    1.3512 C   0  0  0  0  0  0  0  0  0  0  0  0
    3.0892   -0.5875    0.7422 C   0  0  0  0  0  0  0  0  0  0  0  0
    3.7956    0.5417    0.4817 N   0  0  0  0  0  0  0  0  0  0  0  0
    3.1329    1.7148    0.3379 C   0  0  0  0  0  0  0  0  0  0  0  0
    1.7577    1.8604    0.4375 C   0  0  0  0  0  0  0  0  0  0  0  0
    0.9887   -2.4608    1.2589 H   0  0  0  0  0  0  0  0  0  0  0  0
   -1.4880    2.2746    0.6603 H   0  0  0  0  0  0  0  0  0  0  0  0
   -3.6925    1.2042    1.0468 H   0  0  0  0  0  0  0  0  0  0  0  0
   -3.8527   -1.2236    1.4835 H   0  0  0  0  0  0  0  0  0  0  0  0
   -1.8034   -2.6386    1.5434 H   0  0  0  0  0  0  0  0  0  0  0  0
    3.6413   -1.5148    0.8533 H   0  0  0  0  0  0  0  0  0  0  0  0
    3.7581    2.5816    0.1304 H   0  0  0  0  0  0  0  0  0  0  0  0
    1.2871    2.8294    0.3117 H   0  0  0  0  0  0  0  0  0  0  0  0
  1  2  1  0  0  0  0
  1  5  2  0  0  0  0
  1 13  1  0  0  0  0
  2  3  2  0  0  0  0
  2  6  1  0  0  0  0
  3  4  1  0  0  0  0
  3  9  1  0  0  0  0
  4  5  1  0  0  0  0
  4 14  1  0  0  0  0
  5 10  1  0  0  0  0
  6  7  2  0  0  0  0
  6 15  1  0  0  0  0
  7  8  1  0  0  0  0
  7 16  1  0  0  0  0
  8  9  2  0  0  0  0
  8 17  1  0  0  0  0
  9 18  1  0  0  0  0
 10 11  2  0  0  0  0
 10 19  1  0  0  0  0
 11 12  1  0  0  0  0
 12 13  2  0  0  0  0
 12 20  1  0  0  0  0
 13 21  1  0  0  0  0
M  END
