6-4
 OpenBabel04201808233D
Structure written by MMmdl.
 31 33  0  0  0  0  0  0  0  0999 V2000
    0.0456   -0.0441    2.6118 C   0  0  0  0  0  0  0  0  0  0  0  0
   -1.0242   -0.1831    3.5516 C   0  0  0  0  0  0  0  0  0  0  0  0
   -0.8235   -1.3810    4.2376 C   0  0  0  0  0  0  0  0  0  0  0  0
    0.3257   -1.9513    3.7358 N   0  0  0  0  0  0  0  0  0  0  0  0
    0.8689   -1.1593    2.7499 C   0  0  0  0  0  0  0  0  0  0  0  0
   -2.1482    0.6025    3.8822 C   0  0  0  0  0  0  0  0  0  0  0  0
   -3.0253    0.1631    4.8810 C   0  0  0  0  0  0  0  0  0  0  0  0
   -2.7974   -1.0384    5.5478 C   0  0  0  0  0  0  0  0  0  0  0  0
   -1.6907   -1.8348    5.2390 C   0  0  0  0  0  0  0  0  0  0  0  0
    2.0097   -1.3392    1.9787 C   0  0  0  0  0  0  0  0  0  0  0  0
    2.3348   -0.3972    1.0586 N   0  0  0  0  0  0  0  0  0  0  0  0
    1.5407    0.6868    0.9193 C   0  0  0  0  0  0  0  0  0  0  0  0
    0.3913    0.9241    1.6571 C   0  0  0  0  0  0  0  0  0  0  0  0
    1.8642    1.6515   -0.0163 O   0  0  0  0  0  0  0  0  0  0  0  0
    3.0569    1.3610   -0.7542 C   0  0  0  0  0  0  0  0  0  0  0  0
    3.2817    2.5031   -1.7409 C   0  0  0  0  0  0  0  0  0  0  0  0
    4.5301    2.2904   -2.5782 C   0  0  0  0  0  0  0  0  0  0  0  0
    0.7156   -2.8317    4.0497 H   0  0  0  0  0  0  0  0  0  0  0  0
   -2.3370    1.5428    3.3686 H   0  0  0  0  0  0  0  0  0  0  0  0
   -3.8939    0.7680    5.1377 H   0  0  0  0  0  0  0  0  0  0  0  0
   -3.4913   -1.3638    6.3223 H   0  0  0  0  0  0  0  0  0  0  0  0
   -1.5148   -2.7723    5.7611 H   0  0  0  0  0  0  0  0  0  0  0  0
    2.6628   -2.2004    2.0718 H   0  0  0  0  0  0  0  0  0  0  0  0
   -0.2068    1.8144    1.5002 H   0  0  0  0  0  0  0  0  0  0  0  0
    2.9397    0.4196   -1.3054 H   0  0  0  0  0  0  0  0  0  0  0  0
    3.9143    1.2919   -0.0732 H   0  0  0  0  0  0  0  0  0  0  0  0
    3.3570    3.4511   -1.1946 H   0  0  0  0  0  0  0  0  0  0  0  0
    2.4070    2.6008   -2.3951 H   0  0  0  0  0  0  0  0  0  0  0  0
    4.6661    3.1233   -3.2750 H   0  0  0  0  0  0  0  0  0  0  0  0
    4.4580    1.3673   -3.1622 H   0  0  0  0  0  0  0  0  0  0  0  0
    5.4210    2.2281   -1.9452 H   0  0  0  0  0  0  0  0  0  0  0  0
  1  2  1  0  0  0  0
  1  5  2  0  0  0  0
  1 13  1  0  0  0  0
  2  3  2  0  0  0  0
  2  6  1  0  0  0  0
  3  4  1  0  0  0  0
  3  9  1  0  0  0  0
  4  5  1  0  0  0  0
  4 18  1  0  0  0  0
  5 10  1  0  0  0  0
  6  7  2  0  0  0  0
  6 19  1  0  0  0  0
  7  8  1  0  0  0  0
  7 20  1  0  0  0  0
  8  9  2  0  0  0  0
  8 21  1  0  0  0  0
  9 22  1  0  0  0  0
 10 11  2  0  0  0  0
 10 23  1  0  0  0  0
 11 12  1  0  0  0  0
 12 13  2  0  0  0  0
 12 14  1  0  0  0  0
 13 24  1  0  0  0  0
 14 15  1  0  0  0  0
 15 16  1  0  0  0  0
 15 25  1  0  0  0  0
 15 26  1  0  0  0  0
 16 17  1  0  0  0  0
 16 27  1  0  0  0  0
 16 28  1  0  0  0  0
 17 29  1  0  0  0  0
 17 30  1  0  0  0  0
 17 31  1  0  0  0  0
M  END
