6-12
 OpenBabel04201808233D
Structure written by MMmdl.
 36 39  0  0  0  0  0  0  0  0999 V2000
    3.0047   -1.5615    0.7296 C   0  0  0  0  0  0  0  0  0  0  0  0
    1.5789   -1.4658    0.8037 C   0  0  0  0  0  0  0  0  0  0  0  0
    1.0941   -2.7243    1.1493 C   0  0  0  0  0  0  0  0  0  0  0  0
    2.1803   -3.5602    1.2823 N   0  0  0  0  0  0  0  0  0  0  0  0
    3.3493   -2.8775    1.0325 C   0  0  0  0  0  0  0  0  0  0  0  0
    0.6497   -0.4190    0.6075 C   0  0  0  0  0  0  0  0  0  0  0  0
   -0.7315   -0.6366    0.7564 C   0  0  0  0  0  0  0  0  0  0  0  0
   -1.1622   -1.9208    1.1047 C   0  0  0  0  0  0  0  0  0  0  0  0
   -0.2690   -2.9841    1.3074 C   0  0  0  0  0  0  0  0  0  0  0  0
    4.6676   -3.3152    1.0506 C   0  0  0  0  0  0  0  0  0  0  0  0
    5.6563   -2.4309    0.7634 N   0  0  0  0  0  0  0  0  0  0  0  0
    5.3287   -1.1497    0.4680 C   0  0  0  0  0  0  0  0  0  0  0  0
    4.0339   -0.6550    0.4339 C   0  0  0  0  0  0  0  0  0  0  0  0
   -1.5936    0.4227    0.5521 N   0  0  0  0  0  0  0  0  0  0  0  0
   -3.0392    0.3443    0.6720 C   0  0  0  0  0  0  0  0  0  0  0  0
   -3.6529    1.6950    0.3760 C   0  0  0  0  0  0  0  0  0  0  0  0
   -3.8395    2.6341    1.4018 C   0  0  0  0  0  0  0  0  0  0  0  0
   -4.3927    3.8859    1.1252 C   0  0  0  0  0  0  0  0  0  0  0  0
   -4.7577    4.2151   -0.1791 C   0  0  0  0  0  0  0  0  0  0  0  0
   -4.5668    3.2954   -1.2089 C   0  0  0  0  0  0  0  0  0  0  0  0
   -4.0138    2.0430   -0.9346 C   0  0  0  0  0  0  0  0  0  0  0  0
    2.1258   -4.5408    1.5295 H   0  0  0  0  0  0  0  0  0  0  0  0
    1.0187    0.5684    0.3368 H   0  0  0  0  0  0  0  0  0  0  0  0
   -2.2227   -2.1340    1.2303 H   0  0  0  0  0  0  0  0  0  0  0  0
   -0.6332   -3.9723    1.5776 H   0  0  0  0  0  0  0  0  0  0  0  0
    4.9540   -4.3353    1.2840 H   0  0  0  0  0  0  0  0  0  0  0  0
    6.1681   -0.4924    0.2473 H   0  0  0  0  0  0  0  0  0  0  0  0
    3.8379    0.3833    0.1896 H   0  0  0  0  0  0  0  0  0  0  0  0
   -1.2052    1.3303    0.3015 H   0  0  0  0  0  0  0  0  0  0  0  0
   -3.3264    0.0313    1.6834 H   0  0  0  0  0  0  0  0  0  0  0  0
   -3.4450   -0.3975   -0.0269 H   0  0  0  0  0  0  0  0  0  0  0  0
   -3.5514    2.3925    2.4245 H   0  0  0  0  0  0  0  0  0  0  0  0
   -4.5363    4.6063    1.9288 H   0  0  0  0  0  0  0  0  0  0  0  0
   -5.1879    5.1917   -0.3941 H   0  0  0  0  0  0  0  0  0  0  0  0
   -4.8464    3.5545   -2.2287 H   0  0  0  0  0  0  0  0  0  0  0  0
   -3.8631    1.3364   -1.7501 H   0  0  0  0  0  0  0  0  0  0  0  0
  1  2  1  0  0  0  0
  1  5  2  0  0  0  0
  1 13  1  0  0  0  0
  2  3  2  0  0  0  0
  2  6  1  0  0  0  0
  3  4  1  0  0  0  0
  3  9  1  0  0  0  0
  4  5  1  0  0  0  0
  4 22  1  0  0  0  0
  5 10  1  0  0  0  0
  6  7  2  0  0  0  0
  6 23  1  0  0  0  0
  7  8  1  0  0  0  0
  7 14  1  0  0  0  0
  8  9  2  0  0  0  0
  8 24  1  0  0  0  0
  9 25  1  0  0  0  0
 10 11  2  0  0  0  0
 10 26  1  0  0  0  0
 11 12  1  0  0  0  0
 12 13  2  0  0  0  0
 12 27  1  0  0  0  0
 13 28  1  0  0  0  0
 14 15  1  0  0  0  0
 14 29  1  0  0  0  0
 15 16  1  0  0  0  0
 15 30  1  0  0  0  0
 15 31  1  0  0  0  0
 16 17  2  0  0  0  0
 16 21  1  0  0  0  0
 17 18  1  0  0  0  0
 17 32  1  0  0  0  0
 18 19  2  0  0  0  0
 18 33  1  0  0  0  0
 19 20  1  0  0  0  0
 19 34  1  0  0  0  0
 20 21  2  0  0  0  0
 20 35  1  0  0  0  0
 21 36  1  0  0  0  0
M  END
