7-1a
 OpenBabel04201808233D
Structure written by MMmdl.
 42 45  0  0  0  0  0  0  0  0999 V2000
   -0.6027    4.1786    2.1938 C   0  0  0  0  0  0  0  0  0  0  0  0
   -0.8303    2.8117    2.0801 C   0  0  0  0  0  0  0  0  0  0  0  0
    0.3078    2.0104    1.9072 C   0  0  0  0  0  0  0  0  0  0  0  0
    1.5580    2.6265    1.8799 C   0  0  0  0  0  0  0  0  0  0  0  0
    1.7202    3.9993    2.0237 C   0  0  0  0  0  0  0  0  0  0  0  0
    0.6215    4.7747    2.1862 N   0  0  0  0  0  0  0  0  0  0  0  0
    2.4980    1.6372    1.6949 N   0  0  0  0  0  0  0  0  0  0  0  0
    1.8892    0.4075    1.5857 C   0  0  0  0  0  0  0  0  0  0  0  0
    0.5194    0.6071    1.7278 C   0  0  0  0  0  0  0  0  0  0  0  0
   -0.3338   -0.5178    1.6607 C   0  0  0  0  0  0  0  0  0  0  0  0
    0.1790   -1.8086    1.4353 C   0  0  0  0  0  0  0  0  0  0  0  0
    1.5629   -1.9481    1.2973 C   0  0  0  0  0  0  0  0  0  0  0  0
    2.4422   -0.8565    1.3719 C   0  0  0  0  0  0  0  0  0  0  0  0
   -0.7057   -2.8663    1.3842 N   0  0  0  0  0  0  0  0  0  0  0  0
   -0.3860   -4.2494    1.0679 C   0  0  0  0  0  0  0  0  0  0  0  0
   -0.4216   -4.4963   -0.4240 C   0  0  0  0  0  0  0  0  0  0  0  0
    0.7529   -4.8026   -1.1286 C   0  0  0  0  0  0  0  0  0  0  0  0
    0.7112   -5.0570   -2.5020 C   0  0  0  0  0  0  0  0  0  0  0  0
   -0.5024   -5.0038   -3.1865 C   0  0  0  0  0  0  0  0  0  0  0  0
   -1.6764   -4.6962   -2.5004 C   0  0  0  0  0  0  0  0  0  0  0  0
   -1.6373   -4.4449   -1.1273 C   0  0  0  0  0  0  0  0  0  0  0  0
   -1.7617    5.0964    2.3740 C   0  0  0  0  0  0  0  0  0  0  0  0
   -1.9148    5.7382    3.4118 O   0  0  0  0  0  0  0  0  0  0  0  0
   -2.6635    5.1784    1.3577 O   0  0  0  0  0  0  0  0  0  0  0  0
   -2.3201    4.7721    0.0171 C   0  0  0  0  0  0  0  0  0  0  0  0
   -1.8287    2.3914    2.1142 H   0  0  0  0  0  0  0  0  0  0  0  0
    2.6888    4.4893    2.0098 H   0  0  0  0  0  0  0  0  0  0  0  0
    3.4973    1.7933    1.6356 H   0  0  0  0  0  0  0  0  0  0  0  0
   -1.4064   -0.3718    1.7763 H   0  0  0  0  0  0  0  0  0  0  0  0
    2.0085   -2.9248    1.1230 H   0  0  0  0  0  0  0  0  0  0  0  0
    3.5140   -0.9975    1.2583 H   0  0  0  0  0  0  0  0  0  0  0  0
   -1.7008   -2.6607    1.4625 H   0  0  0  0  0  0  0  0  0  0  0  0
   -1.1414   -4.8953    1.5330 H   0  0  0  0  0  0  0  0  0  0  0  0
    0.5676   -4.5624    1.5079 H   0  0  0  0  0  0  0  0  0  0  0  0
    1.7102   -4.8495   -0.6105 H   0  0  0  0  0  0  0  0  0  0  0  0
    1.6288   -5.2998   -3.0360 H   0  0  0  0  0  0  0  0  0  0  0  0
   -0.5341   -5.2053   -4.2558 H   0  0  0  0  0  0  0  0  0  0  0  0
   -2.6253   -4.6547   -3.0336 H   0  0  0  0  0  0  0  0  0  0  0  0
   -2.5626   -4.2102   -0.6013 H   0  0  0  0  0  0  0  0  0  0  0  0
   -2.9293    5.3644   -0.6707 H   0  0  0  0  0  0  0  0  0  0  0  0
   -2.5712    3.7172   -0.1206 H   0  0  0  0  0  0  0  0  0  0  0  0
   -1.2684    4.9640   -0.2131 H   0  0  0  0  0  0  0  0  0  0  0  0
  1  2  2  0  0  0  0
  1  6  1  0  0  0  0
  1 22  1  0  0  0  0
  2  3  1  0  0  0  0
  2 26  1  0  0  0  0
  3  4  2  0  0  0  0
  3  9  1  0  0  0  0
  4  5  1  0  0  0  0
  4  7  1  0  0  0  0
  5  6  2  0  0  0  0
  5 27  1  0  0  0  0
  7  8  1  0  0  0  0
  7 28  1  0  0  0  0
  8  9  2  0  0  0  0
  8 13  1  0  0  0  0
  9 10  1  0  0  0  0
 10 11  2  0  0  0  0
 10 29  1  0  0  0  0
 11 12  1  0  0  0  0
 11 14  1  0  0  0  0
 12 13  2  0  0  0  0
 12 30  1  0  0  0  0
 13 31  1  0  0  0  0
 14 15  1  0  0  0  0
 14 32  1  0  0  0  0
 15 16  1  0  0  0  0
 15 33  1  0  0  0  0
 15 34  1  0  0  0  0
 16 17  2  0  0  0  0
 16 21  1  0  0  0  0
 17 18  1  0  0  0  0
 17 35  1  0  0  0  0
 18 19  2  0  0  0  0
 18 36  1  0  0  0  0
 19 20  1  0  0  0  0
 19 37  1  0  0  0  0
 20 21  2  0  0  0  0
 20 38  1  0  0  0  0
 21 39  1  0  0  0  0
 22 23  2  0  0  0  0
 22 24  1  0  0  0  0
 24 25  1  0  0  0  0
 25 40  1  0  0  0  0
 25 41  1  0  0  0  0
 25 42  1  0  0  0  0
M  END
