7-1b
 OpenBabel04201808233D
Structure written by MMmdl.
 40 43  0  0  0  0  0  0  0  0999 V2000
   -0.5524    4.5158    2.0048 C   0  0  0  0  0  0  0  0  0  0  0  0
   -0.8850    3.1714    1.8391 C   0  0  0  0  0  0  0  0  0  0  0  0
    0.1695    2.2512    1.7294 C   0  0  0  0  0  0  0  0  0  0  0  0
    1.4743    2.7333    1.7865 C   0  0  0  0  0  0  0  0  0  0  0  0
    1.7601    4.0816    1.9462 C   0  0  0  0  0  0  0  0  0  0  0  0
    0.7328    4.9621    2.0539 N   0  0  0  0  0  0  0  0  0  0  0  0
    2.3175    1.6529    1.6579 N   0  0  0  0  0  0  0  0  0  0  0  0
    1.5941    0.4890    1.5225 C   0  0  0  0  0  0  0  0  0  0  0  0
    0.2456    0.8322    1.5621 C   0  0  0  0  0  0  0  0  0  0  0  0
   -0.7127   -0.2000    1.4444 C   0  0  0  0  0  0  0  0  0  0  0  0
   -0.3226   -1.5430    1.2879 C   0  0  0  0  0  0  0  0  0  0  0  0
    1.0457   -1.8284    1.2592 C   0  0  0  0  0  0  0  0  0  0  0  0
    2.0265   -0.8301    1.3712 C   0  0  0  0  0  0  0  0  0  0  0  0
   -1.3075   -2.5063    1.2007 N   0  0  0  0  0  0  0  0  0  0  0  0
   -1.1065   -3.9324    0.9960 C   0  0  0  0  0  0  0  0  0  0  0  0
   -0.9078   -4.2645   -0.4666 C   0  0  0  0  0  0  0  0  0  0  0  0
    0.2569   -4.9163   -0.8995 C   0  0  0  0  0  0  0  0  0  0  0  0
    0.4291   -5.2456   -2.2459 C   0  0  0  0  0  0  0  0  0  0  0  0
   -0.5621   -4.9326   -3.1744 C   0  0  0  0  0  0  0  0  0  0  0  0
   -1.7264   -4.2900   -2.7585 C   0  0  0  0  0  0  0  0  0  0  0  0
   -1.8997   -3.9597   -1.4128 C   0  0  0  0  0  0  0  0  0  0  0  0
   -1.6552    5.5440    2.1271 C   0  0  0  0  0  0  0  0  0  0  0  0
   -2.3146    5.7153    0.8694 O   0  0  0  0  0  0  0  0  0  0  0  0
   -1.9216    2.8516    1.7963 H   0  0  0  0  0  0  0  0  0  0  0  0
    2.7698    4.4761    1.9917 H   0  0  0  0  0  0  0  0  0  0  0  0
    3.3289    1.7053    1.6657 H   0  0  0  0  0  0  0  0  0  0  0  0
   -1.7694    0.0579    1.4785 H   0  0  0  0  0  0  0  0  0  0  0  0
    1.3958   -2.8524    1.1470 H   0  0  0  0  0  0  0  0  0  0  0  0
    3.0833   -1.0839    1.3436 H   0  0  0  0  0  0  0  0  0  0  0  0
   -2.2789   -2.1994    1.1828 H   0  0  0  0  0  0  0  0  0  0  0  0
   -2.0035   -4.4635    1.3382 H   0  0  0  0  0  0  0  0  0  0  0  0
   -0.2862   -4.3118    1.6160 H   0  0  0  0  0  0  0  0  0  0  0  0
    1.0405   -5.1741   -0.1880 H   0  0  0  0  0  0  0  0  0  0  0  0
    1.3381   -5.7496   -2.5697 H   0  0  0  0  0  0  0  0  0  0  0  0
   -0.4275   -5.1914   -4.2230 H   0  0  0  0  0  0  0  0  0  0  0  0
   -2.5023   -4.0464   -3.4821 H   0  0  0  0  0  0  0  0  0  0  0  0
   -2.8162   -3.4605   -1.1004 H   0  0  0  0  0  0  0  0  0  0  0  0
   -1.2395    6.5097    2.4337 H   0  0  0  0  0  0  0  0  0  0  0  0
   -2.3885    5.2253    2.8757 H   0  0  0  0  0  0  0  0  0  0  0  0
   -2.9921    6.4043    1.0352 H   0  0  0  0  0  0  0  0  0  0  0  0
  1  2  2  0  0  0  0
  1  6  1  0  0  0  0
  1 22  1  0  0  0  0
  2  3  1  0  0  0  0
  2 24  1  0  0  0  0
  3  4  2  0  0  0  0
  3  9  1  0  0  0  0
  4  5  1  0  0  0  0
  4  7  1  0  0  0  0
  5  6  2  0  0  0  0
  5 25  1  0  0  0  0
  7  8  1  0  0  0  0
  7 26  1  0  0  0  0
  8  9  2  0  0  0  0
  8 13  1  0  0  0  0
  9 10  1  0  0  0  0
 10 11  2  0  0  0  0
 10 27  1  0  0  0  0
 11 12  1  0  0  0  0
 11 14  1  0  0  0  0
 12 13  2  0  0  0  0
 12 28  1  0  0  0  0
 13 29  1  0  0  0  0
 14 15  1  0  0  0  0
 14 30  1  0  0  0  0
 15 16  1  0  0  0  0
 15 31  1  0  0  0  0
 15 32  1  0  0  0  0
 16 17  2  0  0  0  0
 16 21  1  0  0  0  0
 17 18  1  0  0  0  0
 17 33  1  0  0  0  0
 18 19  2  0  0  0  0
 18 34  1  0  0  0  0
 19 20  1  0  0  0  0
 19 35  1  0  0  0  0
 20 21  2  0  0  0  0
 20 36  1  0  0  0  0
 21 37  1  0  0  0  0
 22 23  1  0  0  0  0
 22 38  1  0  0  0  0
 22 39  1  0  0  0  0
 23 40  1  0  0  0  0
M  END
