7-5
 OpenBabel04201808233D
Structure written by MMmdl.
 23 25  0  0  0  0  0  0  0  0999 V2000
   -2.2544    0.0268   -0.2538 C   0  0  0  0  0  0  0  0  0  0  0  0
   -2.2406   -1.3284    0.0800 C   0  0  0  0  0  0  0  0  0  0  0  0
   -1.0910   -1.9565    0.5771 C   0  0  0  0  0  0  0  0  0  0  0  0
    0.0508   -1.1689    0.7525 C   0  0  0  0  0  0  0  0  0  0  0  0
    0.0742    0.1935    0.4600 C   0  0  0  0  0  0  0  0  0  0  0  0
   -1.1028    0.7958   -0.0385 C   0  0  0  0  0  0  0  0  0  0  0  0
    1.3016   -1.5094    1.2179 N   0  0  0  0  0  0  0  0  0  0  0  0
    2.1273   -0.4082    1.2371 C   0  0  0  0  0  0  0  0  0  0  0  0
    1.3860    0.6750    0.7688 C   0  0  0  0  0  0  0  0  0  0  0  0
    3.4549   -0.2869    1.6281 C   0  0  0  0  0  0  0  0  0  0  0  0
    4.0525    0.9293    1.5517 N   0  0  0  0  0  0  0  0  0  0  0  0
    3.3379    1.9870    1.0973 C   0  0  0  0  0  0  0  0  0  0  0  0
    2.0128    1.9280    0.6937 C   0  0  0  0  0  0  0  0  0  0  0  0
   -3.4245    0.6293   -0.6833 N   0  0  0  0  0  0  0  0  0  0  0  0
   -3.1421   -1.9271   -0.0492 H   0  0  0  0  0  0  0  0  0  0  0  0
   -1.0961   -3.0158    0.8214 H   0  0  0  0  0  0  0  0  0  0  0  0
   -1.1067    1.8609   -0.2593 H   0  0  0  0  0  0  0  0  0  0  0  0
    1.5741   -2.4405    1.5086 H   0  0  0  0  0  0  0  0  0  0  0  0
    4.0468   -1.1188    1.9951 H   0  0  0  0  0  0  0  0  0  0  0  0
    3.8760    2.9328    1.0610 H   0  0  0  0  0  0  0  0  0  0  0  0
    1.4961    2.8131    0.3388 H   0  0  0  0  0  0  0  0  0  0  0  0
   -3.4093    1.5774   -1.0522 H   0  0  0  0  0  0  0  0  0  0  0  0
   -4.2203    0.0622   -0.9670 H   0  0  0  0  0  0  0  0  0  0  0  0
  1  2  2  0  0  0  0
  1  6  1  0  0  0  0
  1 14  1  0  0  0  0
  2  3  1  0  0  0  0
  2 15  1  0  0  0  0
  3  4  2  0  0  0  0
  3 16  1  0  0  0  0
  4  5  1  0  0  0  0
  4  7  1  0  0  0  0
  5  6  2  0  0  0  0
  5  9  1  0  0  0  0
  6 17  1  0  0  0  0
  7  8  1  0  0  0  0
  7 18  1  0  0  0  0
  8  9  2  0  0  0  0
  8 10  1  0  0  0  0
  9 13  1  0  0  0  0
 10 11  2  0  0  0  0
 10 19  1  0  0  0  0
 11 12  1  0  0  0  0
 12 13  2  0  0  0  0
 12 20  1  0  0  0  0
 13 21  1  0  0  0  0
 14 22  1  0  0  0  0
 14 23  1  0  0  0  0
M  END
