7-6
 OpenBabel04201808233D
Structure written by MMmdl.
 37 40  0  0  0  0  0  0  0  0999 V2000
   -0.2896   -0.5144    0.1479 C   0  0  0  0  0  0  0  0  0  0  0  0
   -0.0420   -1.8522    0.4721 C   0  0  0  0  0  0  0  0  0  0  0  0
    1.2565   -2.3784    0.5516 C   0  0  0  0  0  0  0  0  0  0  0  0
    2.3228   -1.5141    0.2930 C   0  0  0  0  0  0  0  0  0  0  0  0
    2.1353   -0.1740   -0.0337 C   0  0  0  0  0  0  0  0  0  0  0  0
    0.8132    0.3210   -0.1041 C   0  0  0  0  0  0  0  0  0  0  0  0
    3.6794   -1.7492    0.2968 N   0  0  0  0  0  0  0  0  0  0  0  0
    4.3727   -0.6010   -0.0175 C   0  0  0  0  0  0  0  0  0  0  0  0
    3.4299    0.4048   -0.2301 C   0  0  0  0  0  0  0  0  0  0  0  0
    5.7516   -0.3829   -0.1278 C   0  0  0  0  0  0  0  0  0  0  0  0
    6.1792    0.9044   -0.4661 C   0  0  0  0  0  0  0  0  0  0  0  0
    5.2629    1.9305   -0.6847 C   0  0  0  0  0  0  0  0  0  0  0  0
    3.8875    1.6953   -0.5704 C   0  0  0  0  0  0  0  0  0  0  0  0
   -1.5591    0.0229    0.0644 N   0  0  0  0  0  0  0  0  0  0  0  0
   -2.7855   -0.7198    0.2975 C   0  0  0  0  0  0  0  0  0  0  0  0
   -3.9797    0.1919    0.1205 C   0  0  0  0  0  0  0  0  0  0  0  0
   -4.4762    0.9351    1.2022 C   0  0  0  0  0  0  0  0  0  0  0  0
   -5.5698    1.7868    1.0350 C   0  0  0  0  0  0  0  0  0  0  0  0
   -6.1734    1.9106   -0.2152 C   0  0  0  0  0  0  0  0  0  0  0  0
   -5.6824    1.1867   -1.3005 C   0  0  0  0  0  0  0  0  0  0  0  0
   -4.5889    0.3343   -1.1355 C   0  0  0  0  0  0  0  0  0  0  0  0
   -0.8662   -2.5343    0.6754 H   0  0  0  0  0  0  0  0  0  0  0  0
    1.4186   -3.4230    0.8057 H   0  0  0  0  0  0  0  0  0  0  0  0
    0.6562    1.3673   -0.3587 H   0  0  0  0  0  0  0  0  0  0  0  0
    4.1088   -2.6430    0.5021 H   0  0  0  0  0  0  0  0  0  0  0  0
    6.4686   -1.1825    0.0423 H   0  0  0  0  0  0  0  0  0  0  0  0
    7.2458    1.1066   -0.5598 H   0  0  0  0  0  0  0  0  0  0  0  0
    5.6179    2.9261   -0.9473 H   0  0  0  0  0  0  0  0  0  0  0  0
    3.1814    2.5046   -0.7437 H   0  0  0  0  0  0  0  0  0  0  0  0
   -1.6606    1.0066   -0.1798 H   0  0  0  0  0  0  0  0  0  0  0  0
   -2.7977   -1.1367    1.3121 H   0  0  0  0  0  0  0  0  0  0  0  0
   -2.8660   -1.5610   -0.4021 H   0  0  0  0  0  0  0  0  0  0  0  0
   -4.0088    0.8534    2.1830 H   0  0  0  0  0  0  0  0  0  0  0  0
   -5.9495    2.3565    1.8815 H   0  0  0  0  0  0  0  0  0  0  0  0
   -7.0255    2.5757   -0.3450 H   0  0  0  0  0  0  0  0  0  0  0  0
   -6.1502    1.2877   -2.2784 H   0  0  0  0  0  0  0  0  0  0  0  0
   -4.2107   -0.2201   -1.9938 H   0  0  0  0  0  0  0  0  0  0  0  0
  1  2  2  0  0  0  0
  1  6  1  0  0  0  0
  1 14  1  0  0  0  0
  2  3  1  0  0  0  0
  2 22  1  0  0  0  0
  3  4  2  0  0  0  0
  3 23  1  0  0  0  0
  4  5  1  0  0  0  0
  4  7  1  0  0  0  0
  5  6  2  0  0  0  0
  5  9  1  0  0  0  0
  6 24  1  0  0  0  0
  7  8  1  0  0  0  0
  7 25  1  0  0  0  0
  8  9  2  0  0  0  0
  8 10  1  0  0  0  0
  9 13  1  0  0  0  0
 10 11  2  0  0  0  0
 10 26  1  0  0  0  0
 11 12  1  0  0  0  0
 11 27  1  0  0  0  0
 12 13  2  0  0  0  0
 12 28  1  0  0  0  0
 13 29  1  0  0  0  0
 14 15  1  0  0  0  0
 14 30  1  0  0  0  0
 15 16  1  0  0  0  0
 15 31  1  0  0  0  0
 15 32  1  0  0  0  0
 16 17  2  0  0  0  0
 16 21  1  0  0  0  0
 17 18  1  0  0  0  0
 17 33  1  0  0  0  0
 18 19  2  0  0  0  0
 18 34  1  0  0  0  0
 19 20  1  0  0  0  0
 19 35  1  0  0  0  0
 20 21  2  0  0  0  0
 20 36  1  0  0  0  0
 21 37  1  0  0  0  0
M  END
