6-18
 OpenBabel04201808233D
Structure written by MMmdl.
 29 31  0  0  0  0  0  0  0  0999 V2000
    0.7090   -0.8930    2.4004 C   0  0  0  0  0  0  0  0  0  0  0  0
   -0.6723   -1.1023    2.7966 C   0  0  0  0  0  0  0  0  0  0  0  0
   -0.7918   -2.1076    3.7572 C   0  0  0  0  0  0  0  0  0  0  0  0
    0.7358   -2.7735    4.1615 S   0  0  0  0  0  0  0  0  0  0  0  0
    1.5787   -1.7475    3.0768 C   0  0  0  0  0  0  0  0  0  0  0  0
   -1.8612   -0.4581    2.3640 C   0  0  0  0  0  0  0  0  0  0  0  0
   -3.1047   -0.8246    2.8876 C   0  0  0  0  0  0  0  0  0  0  0  0
   -3.1924   -1.8274    3.8410 C   0  0  0  0  0  0  0  0  0  0  0  0
   -2.0429   -2.4810    4.2883 C   0  0  0  0  0  0  0  0  0  0  0  0
    2.9557   -1.7150    2.8474 C   0  0  0  0  0  0  0  0  0  0  0  0
    3.4774   -0.8419    1.9521 N   0  0  0  0  0  0  0  0  0  0  0  0
    2.6454   -0.0015    1.2830 C   0  0  0  0  0  0  0  0  0  0  0  0
    1.2677    0.0127    1.4691 C   0  0  0  0  0  0  0  0  0  0  0  0
    3.3259    0.9247    0.3139 C   0  0  0  0  0  0  0  0  0  0  0  0
    4.5354    0.9506    0.1193 O   0  0  0  0  0  0  0  0  0  0  0  0
    2.4196    1.7227   -0.3119 O   0  0  0  0  0  0  0  0  0  0  0  0
    2.9771    2.6445   -1.2615 C   0  0  0  0  0  0  0  0  0  0  0  0
    1.8408    3.4490   -1.8614 C   0  0  0  0  0  0  0  0  0  0  0  0
   -1.8132    0.3318    1.6159 H   0  0  0  0  0  0  0  0  0  0  0  0
   -4.0059   -0.3192    2.5435 H   0  0  0  0  0  0  0  0  0  0  0  0
   -4.1638   -2.1089    4.2452 H   0  0  0  0  0  0  0  0  0  0  0  0
   -2.1172   -3.2673    5.0367 H   0  0  0  0  0  0  0  0  0  0  0  0
    3.6504   -2.3708    3.3628 H   0  0  0  0  0  0  0  0  0  0  0  0
    0.6271    0.6950    0.9211 H   0  0  0  0  0  0  0  0  0  0  0  0
    3.4973    2.0897   -2.0501 H   0  0  0  0  0  0  0  0  0  0  0  0
    3.6803    3.3142   -0.7542 H   0  0  0  0  0  0  0  0  0  0  0  0
    2.2163    4.1677   -2.5950 H   0  0  0  0  0  0  0  0  0  0  0  0
    1.2982    3.9914   -1.0801 H   0  0  0  0  0  0  0  0  0  0  0  0
    1.1176    2.7884   -2.3510 H   0  0  0  0  0  0  0  0  0  0  0  0
  1  2  1  0  0  0  0
  1  5  2  0  0  0  0
  1 13  1  0  0  0  0
  2  3  2  0  0  0  0
  2  6  1  0  0  0  0
  3  4  1  0  0  0  0
  3  9  1  0  0  0  0
  4  5  1  0  0  0  0
  5 10  1  0  0  0  0
  6  7  2  0  0  0  0
  6 19  1  0  0  0  0
  7  8  1  0  0  0  0
  7 20  1  0  0  0  0
  8  9  2  0  0  0  0
  8 21  1  0  0  0  0
  9 22  1  0  0  0  0
 10 11  2  0  0  0  0
 10 23  1  0  0  0  0
 11 12  1  0  0  0  0
 12 13  2  0  0  0  0
 12 14  1  0  0  0  0
 13 24  1  0  0  0  0
 14 15  2  0  0  0  0
 14 16  1  0  0  0  0
 16 17  1  0  0  0  0
 17 18  1  0  0  0  0
 17 25  1  0  0  0  0
 17 26  1  0  0  0  0
 18 27  1  0  0  0  0
 18 28  1  0  0  0  0
 18 29  1  0  0  0  0
M  END
