5-37
 OpenBabel04201808233D
Structure written by MMmdl.
 29 31  0  0  0  0  0  0  0  0999 V2000
   -3.2270   -2.2844   -0.1799 C   0  0  0  0  0  0  0  0  0  0  0  0
   -3.1382   -3.6086    0.2564 C   0  0  0  0  0  0  0  0  0  0  0  0
   -1.9378   -4.1285    0.7517 C   0  0  0  0  0  0  0  0  0  0  0  0
   -0.8497   -3.2594    0.7840 C   0  0  0  0  0  0  0  0  0  0  0  0
   -0.8958   -1.9349    0.3594 C   0  0  0  0  0  0  0  0  0  0  0  0
   -2.1140   -1.4326   -0.1354 C   0  0  0  0  0  0  0  0  0  0  0  0
    1.1631   -2.4561    1.0938 C   0  0  0  0  0  0  0  0  0  0  0  0
    0.4154   -1.4121    0.5611 C   0  0  0  0  0  0  0  0  0  0  0  0
    2.5012   -2.3339    1.4279 C   0  0  0  0  0  0  0  0  0  0  0  0
    3.1137   -1.1366    1.2255 N   0  0  0  0  0  0  0  0  0  0  0  0
    2.3962   -0.0947    0.7015 C   0  0  0  0  0  0  0  0  0  0  0  0
    1.0468   -0.1758    0.3519 C   0  0  0  0  0  0  0  0  0  0  0  0
    3.1796    1.1774    0.5227 C   0  0  0  0  0  0  0  0  0  0  0  0
    4.3622    1.3048    0.8168 O   0  0  0  0  0  0  0  0  0  0  0  0
    2.3990    2.1571   -0.0068 O   0  0  0  0  0  0  0  0  0  0  0  0
    2.0595    4.3830   -0.8109 C   0  0  0  0  0  0  0  0  0  0  0  0
    3.0620    3.4137   -0.2159 C   0  0  0  0  0  0  0  0  0  0  0  0
    0.3984   -3.5751    1.2292 O   0  0  0  0  0  0  0  0  0  0  0  0
   -4.1753   -1.9061   -0.5611 H   0  0  0  0  0  0  0  0  0  0  0  0
   -4.0191   -4.2487    0.2106 H   0  0  0  0  0  0  0  0  0  0  0  0
   -1.8571   -5.1548    1.0932 H   0  0  0  0  0  0  0  0  0  0  0  0
   -2.1977   -0.4039   -0.4784 H   0  0  0  0  0  0  0  0  0  0  0  0
    3.0858   -3.1453    1.8430 H   0  0  0  0  0  0  0  0  0  0  0  0
    0.5011    0.6643   -0.0610 H   0  0  0  0  0  0  0  0  0  0  0  0
    2.5191    5.3591   -0.9896 H   0  0  0  0  0  0  0  0  0  0  0  0
    1.2035    4.5122   -0.1403 H   0  0  0  0  0  0  0  0  0  0  0  0
    1.6666    3.9981   -1.7578 H   0  0  0  0  0  0  0  0  0  0  0  0
    3.9015    3.2761   -0.9063 H   0  0  0  0  0  0  0  0  0  0  0  0
    3.4292    3.7990    0.7417 H   0  0  0  0  0  0  0  0  0  0  0  0
  1  2  2  0  0  0  0
  1  6  1  0  0  0  0
  1 19  1  0  0  0  0
  2  3  1  0  0  0  0
  2 20  1  0  0  0  0
  3  4  2  0  0  0  0
  3 21  1  0  0  0  0
  4  5  1  0  0  0  0
  4 18  1  0  0  0  0
  5  6  2  0  0  0  0
  5  8  1  0  0  0  0
  6 22  1  0  0  0  0
  7  8  2  0  0  0  0
  7  9  1  0  0  0  0
  7 18  1  0  0  0  0
  8 12  1  0  0  0  0
  9 10  2  0  0  0  0
  9 23  1  0  0  0  0
 10 11  1  0  0  0  0
 11 12  2  0  0  0  0
 11 13  1  0  0  0  0
 12 24  1  0  0  0  0
 13 14  2  0  0  0  0
 13 15  1  0  0  0  0
 15 17  1  0  0  0  0
 16 17  1  0  0  0  0
 16 25  1  0  0  0  0
 16 26  1  0  0  0  0
 16 27  1  0  0  0  0
 17 28  1  0  0  0  0
 17 29  1  0  0  0  0
M  END
