2-50
 OpenBabel04201808233D
Structure written by MMmdl.
 44 47  0  0  0  0  0  0  0  0999 V2000
   -3.2775   -2.7595   -0.4861 C   0  0  0  0  0  0  0  0  0  0  0  0
   -2.9176   -3.5265    0.6175 C   0  0  0  0  0  0  0  0  0  0  0  0
   -2.1115   -2.9968    1.6298 C   0  0  0  0  0  0  0  0  0  0  0  0
   -1.6738   -1.6673    1.5026 C   0  0  0  0  0  0  0  0  0  0  0  0
   -2.0177   -0.8824    0.3968 C   0  0  0  0  0  0  0  0  0  0  0  0
   -2.8353   -1.4380   -0.6081 C   0  0  0  0  0  0  0  0  0  0  0  0
   -0.8899   -0.8856    2.3377 N   0  0  0  0  0  0  0  0  0  0  0  0
   -0.6969    0.3520    1.7676 C   0  0  0  0  0  0  0  0  0  0  0  0
   -1.4059    0.3840    0.5818 C   0  0  0  0  0  0  0  0  0  0  0  0
    0.1351    1.4751    2.3257 C   0  0  2  0  0  0  0  0  0  0  0  0
   -0.1849    2.7427    1.6262 N   0  0  0  0  0  0  0  0  0  0  0  0
   -0.3619    2.6231    0.1455 C   0  0  2  0  0  0  0  0  0  0  0  0
   -1.4593    1.6110   -0.2634 C   0  0  0  0  0  0  0  0  0  0  0  0
    0.9946    2.4619   -0.5683 C   0  0  0  0  0  0  0  0  0  0  0  0
    1.9508    3.2119   -0.3727 O   0  0  0  0  0  0  0  0  0  0  0  0
    1.0084    1.4325   -1.4576 O   0  0  0  0  0  0  0  0  0  0  0  0
    2.2434    1.2587   -2.1590 C   0  0  0  0  0  0  0  0  0  0  0  0
   -0.3479   -1.3417    3.6025 C   0  0  0  0  0  0  0  0  0  0  0  0
    1.6371    1.2005    2.3888 C   0  0  0  0  0  0  0  0  0  0  0  0
    2.2829    0.2514    1.5776 C   0  0  0  0  0  0  0  0  0  0  0  0
    3.6603    0.0378    1.6792 C   0  0  0  0  0  0  0  0  0  0  0  0
    4.4169    0.7705    2.5899 C   0  0  0  0  0  0  0  0  0  0  0  0
    3.7985    1.7184    3.4005 C   0  0  0  0  0  0  0  0  0  0  0  0
    2.4220    1.9322    3.3005 C   0  0  0  0  0  0  0  0  0  0  0  0
   -3.9074   -3.1900   -1.2632 H   0  0  0  0  0  0  0  0  0  0  0  0
   -3.2691   -4.5548    0.6966 H   0  0  0  0  0  0  0  0  0  0  0  0
   -1.8382   -3.6067    2.4875 H   0  0  0  0  0  0  0  0  0  0  0  0
   -3.1209   -0.8490   -1.4770 H   0  0  0  0  0  0  0  0  0  0  0  0
   -0.2002    1.6237    3.3613 H   0  0  0  0  0  0  0  0  0  0  0  0
    0.5637    3.4150    1.8130 H   0  0  0  0  0  0  0  0  0  0  0  0
   -0.7177    3.6011   -0.2078 H   0  0  0  0  0  0  0  0  0  0  0  0
   -2.4412    2.0768   -0.1044 H   0  0  0  0  0  0  0  0  0  0  0  0
   -1.4012    1.3515   -1.3257 H   0  0  0  0  0  0  0  0  0  0  0  0
    3.0665    1.0918   -1.4578 H   0  0  0  0  0  0  0  0  0  0  0  0
    2.4437    2.1282   -2.7924 H   0  0  0  0  0  0  0  0  0  0  0  0
    2.1477    0.3765   -2.7978 H   0  0  0  0  0  0  0  0  0  0  0  0
   -0.0772   -0.4881    4.2259 H   0  0  0  0  0  0  0  0  0  0  0  0
    0.5319   -1.9546    3.3924 H   0  0  0  0  0  0  0  0  0  0  0  0
   -1.1093   -1.9267    4.1247 H   0  0  0  0  0  0  0  0  0  0  0  0
    1.7225   -0.3380    0.8533 H   0  0  0  0  0  0  0  0  0  0  0  0
    4.1426   -0.7031    1.0439 H   0  0  0  0  0  0  0  0  0  0  0  0
    5.4895    0.6029    2.6674 H   0  0  0  0  0  0  0  0  0  0  0  0
    4.3876    2.2935    4.1127 H   0  0  0  0  0  0  0  0  0  0  0  0
    1.9579    2.6785    3.9456 H   0  0  0  0  0  0  0  0  0  0  0  0
  1  2  2  0  0  0  0
  1  6  1  0  0  0  0
  1 25  1  0  0  0  0
  2  3  1  0  0  0  0
  2 26  1  0  0  0  0
  3  4  2  0  0  0  0
  3 27  1  0  0  0  0
  4  5  1  0  0  0  0
  4  7  1  0  0  0  0
  5  6  2  0  0  0  0
  5  9  1  0  0  0  0
  6 28  1  0  0  0  0
  7  8  1  0  0  0  0
  7 18  1  0  0  0  0
  8  9  2  0  0  0  0
  8 10  1  0  0  0  0
  9 13  1  0  0  0  0
 10 11  1  0  0  0  0
 10 19  1  0  0  0  0
 10 29  1  1  0  0  0
 11 12  1  0  0  0  0
 11 30  1  0  0  0  0
 12 13  1  0  0  0  0
 12 14  1  0  0  0  0
 12 31  1  6  0  0  0
 13 32  1  0  0  0  0
 13 33  1  0  0  0  0
 14 15  2  0  0  0  0
 14 16  1  0  0  0  0
 16 17  1  0  0  0  0
 17 34  1  0  0  0  0
 17 35  1  0  0  0  0
 17 36  1  0  0  0  0
 18 37  1  0  0  0  0
 18 38  1  0  0  0  0
 18 39  1  0  0  0  0
 19 20  2  0  0  0  0
 19 24  1  0  0  0  0
 20 21  1  0  0  0  0
 20 40  1  0  0  0  0
 21 22  2  0  0  0  0
 21 41  1  0  0  0  0
 22 23  1  0  0  0  0
 22 42  1  0  0  0  0
 23 24  2  0  0  0  0
 23 43  1  0  0  0  0
 24 44  1  0  0  0  0
M  END
