2-59
 OpenBabel04201808233D
Structure written by MMmdl.
 39 42  0  0  0  0  0  0  0  0999 V2000
   -3.0871   -3.2376   -0.8437 C   0  0  0  0  0  0  0  0  0  0  0  0
   -3.5457   -3.1918    0.4712 C   0  0  0  0  0  0  0  0  0  0  0  0
   -3.0980   -2.2069    1.3571 C   0  0  0  0  0  0  0  0  0  0  0  0
   -2.1747   -1.2700    0.8758 C   0  0  0  0  0  0  0  0  0  0  0  0
   -1.6988   -1.2912   -0.4402 C   0  0  0  0  0  0  0  0  0  0  0  0
   -2.1640   -2.2948   -1.3123 C   0  0  0  0  0  0  0  0  0  0  0  0
   -1.5714   -0.2072    1.5225 N   0  0  0  0  0  0  0  0  0  0  0  0
   -0.7327    0.4349    0.6527 C   0  0  0  0  0  0  0  0  0  0  0  0
   -0.7932   -0.2072   -0.5634 C   0  0  0  0  0  0  0  0  0  0  0  0
    0.0975    1.6362    0.9604 C   0  0  2  0  0  0  0  0  0  0  0  0
    0.2314    2.4648   -0.2462 N   0  0  0  0  0  0  0  0  0  0  0  0
    0.2710    1.8205   -1.5849 C   0  0  2  0  0  0  0  0  0  0  0  0
    0.0404    0.2807   -1.6920 C   0  0  0  0  0  0  0  0  0  0  0  0
    1.4553    1.3445    1.5954 C   0  0  0  0  0  0  0  0  0  0  0  0
    2.1566    0.1420    1.4060 C   0  0  0  0  0  0  0  0  0  0  0  0
    3.4092   -0.0599    1.9931 C   0  0  0  0  0  0  0  0  0  0  0  0
    3.9855    0.9375    2.7754 C   0  0  0  0  0  0  0  0  0  0  0  0
    3.3117    2.1394    2.9713 C   0  0  0  0  0  0  0  0  0  0  0  0
    2.0602    2.3418    2.3853 C   0  0  0  0  0  0  0  0  0  0  0  0
    1.5408    2.2322   -2.3655 C   0  0  0  0  0  0  0  0  0  0  0  0
    2.7362    1.7083   -1.7825 O   0  0  0  0  0  0  0  0  0  0  0  0
   -3.4492   -4.0144   -1.5157 H   0  0  0  0  0  0  0  0  0  0  0  0
   -4.2640   -3.9349    0.8163 H   0  0  0  0  0  0  0  0  0  0  0  0
   -3.4566   -2.1745    2.3830 H   0  0  0  0  0  0  0  0  0  0  0  0
   -1.8134   -2.3417   -2.3410 H   0  0  0  0  0  0  0  0  0  0  0  0
   -1.7297    0.0479    2.4911 H   0  0  0  0  0  0  0  0  0  0  0  0
   -0.4698    2.2334    1.6880 H   0  0  0  0  0  0  0  0  0  0  0  0
    0.9506    3.1767   -0.1256 H   0  0  0  0  0  0  0  0  0  0  0  0
   -0.5698    2.2825   -2.1211 H   0  0  0  0  0  0  0  0  0  0  0  0
   -0.4365    0.0485   -2.6514 H   0  0  0  0  0  0  0  0  0  0  0  0
    0.9967   -0.2554   -1.6644 H   0  0  0  0  0  0  0  0  0  0  0  0
    1.7393   -0.6575    0.7968 H   0  0  0  0  0  0  0  0  0  0  0  0
    3.9359   -0.9998    1.8360 H   0  0  0  0  0  0  0  0  0  0  0  0
    4.9612    0.7782    3.2307 H   0  0  0  0  0  0  0  0  0  0  0  0
    3.7603    2.9228    3.5796 H   0  0  0  0  0  0  0  0  0  0  0  0
    1.5519    3.2927    2.5475 H   0  0  0  0  0  0  0  0  0  0  0  0
    1.6358    3.3230   -2.4052 H   0  0  0  0  0  0  0  0  0  0  0  0
    1.4877    1.8699   -3.3975 H   0  0  0  0  0  0  0  0  0  0  0  0
    2.6526    1.8564   -0.8173 H   0  0  0  0  0  0  0  0  0  0  0  0
  1  2  2  0  0  0  0
  1  6  1  0  0  0  0
  1 22  1  0  0  0  0
  2  3  1  0  0  0  0
  2 23  1  0  0  0  0
  3  4  2  0  0  0  0
  3 24  1  0  0  0  0
  4  5  1  0  0  0  0
  4  7  1  0  0  0  0
  5  6  2  0  0  0  0
  5  9  1  0  0  0  0
  6 25  1  0  0  0  0
  7  8  1  0  0  0  0
  7 26  1  0  0  0  0
  8  9  2  0  0  0  0
  8 10  1  0  0  0  0
  9 13  1  0  0  0  0
 10 11  1  0  0  0  0
 10 14  1  0  0  0  0
 10 27  1  1  0  0  0
 11 12  1  0  0  0  0
 11 28  1  0  0  0  0
 12 13  1  0  0  0  0
 12 20  1  0  0  0  0
 12 29  1  6  0  0  0
 13 30  1  0  0  0  0
 13 31  1  0  0  0  0
 14 15  2  0  0  0  0
 14 19  1  0  0  0  0
 15 16  1  0  0  0  0
 15 32  1  0  0  0  0
 16 17  2  0  0  0  0
 16 33  1  0  0  0  0
 17 18  1  0  0  0  0
 17 34  1  0  0  0  0
 18 19  2  0  0  0  0
 18 35  1  0  0  0  0
 19 36  1  0  0  0  0
 20 21  1  0  0  0  0
 20 37  1  0  0  0  0
 20 38  1  0  0  0  0
 21 39  1  0  0  0  0
M  END
