2-63
 OpenBabel04201808233D
Structure written by MMmdl.
 28 30  0  0  0  0  0  0  0  0999 V2000
   -3.1591   -0.0666   -1.0530 C   0  0  0  0  0  0  0  0  0  0  0  0
   -3.0787   -1.4333   -0.7947 C   0  0  0  0  0  0  0  0  0  0  0  0
   -1.8817   -2.0172   -0.3684 C   0  0  0  0  0  0  0  0  0  0  0  0
   -0.7696   -1.1804   -0.2106 C   0  0  0  0  0  0  0  0  0  0  0  0
   -0.8225    0.1950   -0.4607 C   0  0  0  0  0  0  0  0  0  0  0  0
   -2.0398    0.7587   -0.8908 C   0  0  0  0  0  0  0  0  0  0  0  0
    0.5181   -1.4842    0.1894 N   0  0  0  0  0  0  0  0  0  0  0  0
    1.2733   -0.3431    0.1949 C   0  0  0  0  0  0  0  0  0  0  0  0
    0.4735    0.7103   -0.1966 C   0  0  0  0  0  0  0  0  0  0  0  0
    2.7073   -0.2641    0.5942 C   0  0  0  0  0  0  0  0  0  0  0  0
    3.3264    1.0099    0.1441 N   0  0  0  0  0  0  0  0  0  0  0  0
    2.4156    2.1658    0.3822 C   0  0  0  0  0  0  0  0  0  0  0  0
    1.0248    2.0916   -0.3041 C   0  0  0  0  0  0  0  0  0  0  0  0
    3.7356    0.9332   -1.2620 C   0  0  0  0  0  0  0  0  0  0  0  0
   -4.1019    0.3663   -1.3848 H   0  0  0  0  0  0  0  0  0  0  0  0
   -3.9612   -2.0585   -0.9269 H   0  0  0  0  0  0  0  0  0  0  0  0
   -1.8216   -3.0843   -0.1687 H   0  0  0  0  0  0  0  0  0  0  0  0
   -2.1154    1.8244   -1.0958 H   0  0  0  0  0  0  0  0  0  0  0  0
    0.8419   -2.4121    0.4402 H   0  0  0  0  0  0  0  0  0  0  0  0
    3.2726   -1.1259    0.2202 H   0  0  0  0  0  0  0  0  0  0  0  0
    2.7676   -0.3035    1.6889 H   0  0  0  0  0  0  0  0  0  0  0  0
    2.9154    3.0972    0.0886 H   0  0  0  0  0  0  0  0  0  0  0  0
    2.2659    2.2466    1.4678 H   0  0  0  0  0  0  0  0  0  0  0  0
    0.3463    2.8135    0.1635 H   0  0  0  0  0  0  0  0  0  0  0  0
    1.1192    2.3578   -1.3634 H   0  0  0  0  0  0  0  0  0  0  0  0
    4.2153    1.8689   -1.5699 H   0  0  0  0  0  0  0  0  0  0  0  0
    2.9049    0.7328   -1.9466 H   0  0  0  0  0  0  0  0  0  0  0  0
    4.4830    0.1430   -1.3950 H   0  0  0  0  0  0  0  0  0  0  0  0
  1  2  2  0  0  0  0
  1  6  1  0  0  0  0
  1 15  1  0  0  0  0
  2  3  1  0  0  0  0
  2 16  1  0  0  0  0
  3  4  2  0  0  0  0
  3 17  1  0  0  0  0
  4  5  1  0  0  0  0
  4  7  1  0  0  0  0
  5  6  2  0  0  0  0
  5  9  1  0  0  0  0
  6 18  1  0  0  0  0
  7  8  1  0  0  0  0
  7 19  1  0  0  0  0
  8  9  2  0  0  0  0
  8 10  1  0  0  0  0
  9 13  1  0  0  0  0
 10 11  1  0  0  0  0
 10 20  1  0  0  0  0
 10 21  1  0  0  0  0
 11 12  1  0  0  0  0
 11 14  1  0  0  0  0
 12 13  1  0  0  0  0
 12 22  1  0  0  0  0
 12 23  1  0  0  0  0
 13 24  1  0  0  0  0
 13 25  1  0  0  0  0
 14 26  1  0  0  0  0
 14 27  1  0  0  0  0
 14 28  1  0  0  0  0
M  END
