2-55
 OpenBabel04201808233D
Structure written by MMmdl.
 40 43  0  0  0  0  0  0  0  0999 V2000
   -2.7178   -2.3945   -2.5151 C   0  0  0  0  0  0  0  0  0  0  0  0
   -3.2282   -2.5876   -1.2333 C   0  0  0  0  0  0  0  0  0  0  0  0
   -2.7729   -1.8245   -0.1538 C   0  0  0  0  0  0  0  0  0  0  0  0
   -1.7874   -0.8623   -0.4076 C   0  0  0  0  0  0  0  0  0  0  0  0
   -1.2574   -0.6472   -1.6827 C   0  0  0  0  0  0  0  0  0  0  0  0
   -1.7331   -1.4283   -2.7543 C   0  0  0  0  0  0  0  0  0  0  0  0
   -1.1670    0.0191    0.4559 N   0  0  0  0  0  0  0  0  0  0  0  0
   -0.2508    0.7731   -0.2323 C   0  0  0  0  0  0  0  0  0  0  0  0
   -0.2976    0.3923   -1.5589 C   0  0  0  0  0  0  0  0  0  0  0  0
    0.6006    1.8634    0.3532 C   0  0  2  0  0  0  0  0  0  0  0  0
    1.7196    2.1676   -0.5699 N   0  0  0  0  0  0  0  0  0  0  0  0
    1.2661    2.2926   -1.9882 C   0  0  2  0  0  0  0  0  0  0  0  0
    0.5736    1.0382   -2.5810 C   0  0  0  0  0  0  0  0  0  0  0  0
    1.1447    1.5216    1.7254 C   0  0  0  0  0  0  0  0  0  0  0  0
    2.0630    0.4832    1.9317 C   0  0  0  0  0  0  0  0  0  0  0  0
    2.5244    0.2038    3.2150 C   0  0  0  0  0  0  0  0  0  0  0  0
    2.0524    0.9725    4.2645 C   0  0  0  0  0  0  0  0  0  0  0  0
    1.1647    1.9835    4.1137 N   0  0  0  0  0  0  0  0  0  0  0  0
    0.7335    2.2328    2.8500 C   0  0  0  0  0  0  0  0  0  0  0  0
    2.3949    2.7246   -2.9312 C   0  0  0  0  0  0  0  0  0  0  0  0
    2.1840    3.5455   -3.8318 O   0  0  0  0  0  0  0  0  0  0  0  0
    3.6432    2.2102   -2.8141 O   0  0  0  0  0  0  0  0  0  0  0  0
    4.0011    1.1291   -1.9332 C   0  0  0  0  0  0  0  0  0  0  0  0
   -3.0875   -3.0004   -3.3413 H   0  0  0  0  0  0  0  0  0  0  0  0
   -3.9944   -3.3445   -1.0678 H   0  0  0  0  0  0  0  0  0  0  0  0
   -3.1733   -1.9768    0.8455 H   0  0  0  0  0  0  0  0  0  0  0  0
   -1.3429   -1.2869   -3.7598 H   0  0  0  0  0  0  0  0  0  0  0  0
   -1.3605    0.0847    1.4490 H   0  0  0  0  0  0  0  0  0  0  0  0
   -0.0254    2.7635    0.4271 H   0  0  0  0  0  0  0  0  0  0  0  0
    2.1085    3.0680   -0.2766 H   0  0  0  0  0  0  0  0  0  0  0  0
    0.5431    3.1219   -1.9996 H   0  0  0  0  0  0  0  0  0  0  0  0
   -0.0281    1.3333   -3.4496 H   0  0  0  0  0  0  0  0  0  0  0  0
    1.3058    0.3064   -2.9393 H   0  0  0  0  0  0  0  0  0  0  0  0
    2.4184   -0.1087    1.0899 H   0  0  0  0  0  0  0  0  0  0  0  0
    3.2360   -0.5965    3.3919 H   0  0  0  0  0  0  0  0  0  0  0  0
    2.3887    0.7853    5.2821 H   0  0  0  0  0  0  0  0  0  0  0  0
    0.0200    3.0511    2.7649 H   0  0  0  0  0  0  0  0  0  0  0  0
    4.8883    0.6480   -2.3555 H   0  0  0  0  0  0  0  0  0  0  0  0
    3.2201    0.3716   -1.8587 H   0  0  0  0  0  0  0  0  0  0  0  0
    4.2714    1.5298   -0.9530 H   0  0  0  0  0  0  0  0  0  0  0  0
  1  2  2  0  0  0  0
  1  6  1  0  0  0  0
  1 24  1  0  0  0  0
  2  3  1  0  0  0  0
  2 25  1  0  0  0  0
  3  4  2  0  0  0  0
  3 26  1  0  0  0  0
  4  5  1  0  0  0  0
  4  7  1  0  0  0  0
  5  6  2  0  0  0  0
  5  9  1  0  0  0  0
  6 27  1  0  0  0  0
  7  8  1  0  0  0  0
  7 28  1  0  0  0  0
  8  9  2  0  0  0  0
  8 10  1  0  0  0  0
  9 13  1  0  0  0  0
 10 11  1  0  0  0  0
 10 14  1  0  0  0  0
 10 29  1  1  0  0  0
 11 12  1  0  0  0  0
 11 30  1  0  0  0  0
 12 13  1  0  0  0  0
 12 20  1  0  0  0  0
 12 31  1  6  0  0  0
 13 32  1  0  0  0  0
 13 33  1  0  0  0  0
 14 15  2  0  0  0  0
 14 19  1  0  0  0  0
 15 16  1  0  0  0  0
 15 34  1  0  0  0  0
 16 17  2  0  0  0  0
 16 35  1  0  0  0  0
 17 18  1  0  0  0  0
 17 36  1  0  0  0  0
 18 19  2  0  0  0  0
 19 37  1  0  0  0  0
 20 21  2  0  0  0  0
 20 22  1  0  0  0  0
 22 23  1  0  0  0  0
 23 38  1  0  0  0  0
 23 39  1  0  0  0  0
 23 40  1  0  0  0  0
M  END
