2-22
 OpenBabel04201808233D
Structure written by MMmdl.
 40 42  0  0  0  0  0  0  0  0999 V2000
   -3.9867   -0.3844   -1.1665 C   0  0  0  0  0  0  0  0  0  0  0  0
   -3.9632   -1.7024   -0.7216 C   0  0  0  0  0  0  0  0  0  0  0  0
   -2.7926   -2.2663   -0.2050 C   0  0  0  0  0  0  0  0  0  0  0  0
   -1.6369   -1.4677   -0.1535 C   0  0  0  0  0  0  0  0  0  0  0  0
   -1.6382   -0.1449   -0.6055 C   0  0  0  0  0  0  0  0  0  0  0  0
   -2.8334    0.4052   -1.1109 C   0  0  0  0  0  0  0  0  0  0  0  0
   -0.3641   -1.7392    0.3285 N   0  0  0  0  0  0  0  0  0  0  0  0
    0.4668   -0.6690    0.0797 C   0  0  0  0  0  0  0  0  0  0  0  0
   -0.3268    0.3551   -0.4106 C   0  0  0  0  0  0  0  0  0  0  0  0
    1.9401   -0.5563    0.3964 C   0  0  2  0  0  0  0  0  0  0  0  0
    2.4689    0.7465   -0.0901 N   0  0  0  0  0  0  0  0  0  0  0  0
    1.5353    1.8814    0.1783 C   0  0  2  0  0  0  0  0  0  0  0  0
    0.2289    1.7197   -0.6432 C   0  0  0  0  0  0  0  0  0  0  0  0
    2.2103    3.2167   -0.1783 C   0  0  0  0  0  0  0  0  0  0  0  0
    1.8143    3.9521   -1.0862 O   0  0  0  0  0  0  0  0  0  0  0  0
    3.3035    3.6005    0.5369 O   0  0  0  0  0  0  0  0  0  0  0  0
    3.7671    2.8679    1.6849 C   0  0  0  0  0  0  0  0  0  0  0  0
   -0.0160   -2.9543    1.0380 C   0  0  0  0  0  0  0  0  0  0  0  0
    4.2546   -1.6215    0.1151 C   0  0  0  0  0  0  0  0  0  0  0  0
    2.7760   -1.6779   -0.2572 C   0  0  0  0  0  0  0  0  0  0  0  0
   -4.9095    0.0379   -1.5616 H   0  0  0  0  0  0  0  0  0  0  0  0
   -4.8702   -2.3040   -0.7716 H   0  0  0  0  0  0  0  0  0  0  0  0
   -2.7895   -3.2959    0.1449 H   0  0  0  0  0  0  0  0  0  0  0  0
   -2.8635    1.4344   -1.4621 H   0  0  0  0  0  0  0  0  0  0  0  0
    2.0667   -0.5913    1.4857 H   0  0  0  0  0  0  0  0  0  0  0  0
    2.5717    0.6732   -1.1071 H   0  0  0  0  0  0  0  0  0  0  0  0
    1.2694    1.9142    1.2421 H   0  0  0  0  0  0  0  0  0  0  0  0
   -0.4965    2.4849   -0.3424 H   0  0  0  0  0  0  0  0  0  0  0  0
    0.4193    1.8485   -1.7163 H   0  0  0  0  0  0  0  0  0  0  0  0
    4.4752    3.5108    2.2160 H   0  0  0  0  0  0  0  0  0  0  0  0
    4.3016    1.9690    1.3696 H   0  0  0  0  0  0  0  0  0  0  0  0
    2.9499    2.6367    2.3718 H   0  0  0  0  0  0  0  0  0  0  0  0
    0.8112   -2.7541    1.7225 H   0  0  0  0  0  0  0  0  0  0  0  0
    0.2582   -3.7123    0.3007 H   0  0  0  0  0  0  0  0  0  0  0  0
   -0.8745   -3.2872    1.6268 H   0  0  0  0  0  0  0  0  0  0  0  0
    4.7820   -2.4788   -0.3157 H   0  0  0  0  0  0  0  0  0  0  0  0
    4.3852   -1.6551    1.2014 H   0  0  0  0  0  0  0  0  0  0  0  0
    4.7338   -0.7138   -0.2640 H   0  0  0  0  0  0  0  0  0  0  0  0
    2.6781   -1.6405   -1.3503 H   0  0  0  0  0  0  0  0  0  0  0  0
    2.4042   -2.6619    0.0421 H   0  0  0  0  0  0  0  0  0  0  0  0
  1  2  2  0  0  0  0
  1  6  1  0  0  0  0
  1 21  1  0  0  0  0
  2  3  1  0  0  0  0
  2 22  1  0  0  0  0
  3  4  2  0  0  0  0
  3 23  1  0  0  0  0
  4  5  1  0  0  0  0
  4  7  1  0  0  0  0
  5  6  2  0  0  0  0
  5  9  1  0  0  0  0
  6 24  1  0  0  0  0
  7  8  1  0  0  0  0
  7 18  1  0  0  0  0
  8  9  2  0  0  0  0
  8 10  1  0  0  0  0
  9 13  1  0  0  0  0
 10 11  1  0  0  0  0
 10 20  1  0  0  0  0
 10 25  1  1  0  0  0
 11 12  1  0  0  0  0
 11 26  1  0  0  0  0
 12 13  1  0  0  0  0
 12 14  1  0  0  0  0
 12 27  1  1  0  0  0
 13 28  1  0  0  0  0
 13 29  1  0  0  0  0
 14 15  2  0  0  0  0
 14 16  1  0  0  0  0
 16 17  1  0  0  0  0
 17 30  1  0  0  0  0
 17 31  1  0  0  0  0
 17 32  1  0  0  0  0
 18 33  1  0  0  0  0
 18 34  1  0  0  0  0
 18 35  1  0  0  0  0
 19 20  1  0  0  0  0
 19 36  1  0  0  0  0
 19 37  1  0  0  0  0
 19 38  1  0  0  0  0
 20 39  1  0  0  0  0
 20 40  1  0  0  0  0
M  END
