Ro20-5397
 OpenBabel04201808233D
Structure written by MMmdl.
 32 34  0  0  0  0  0  0  0  0999 V2000
   -2.1030    2.5150   -0.2113 C   0  0  0  0  0  0  0  0  0  0  0  0
   -2.3424    1.1527   -0.0360 C   0  0  0  0  0  0  0  0  0  0  0  0
   -1.2762    0.2728    0.1660 C   0  0  0  0  0  0  0  0  0  0  0  0
    0.0450    0.7569    0.2030 C   0  0  0  0  0  0  0  0  0  0  0  0
    0.2816    2.1399    0.1029 C   0  0  0  0  0  0  0  0  0  0  0  0
   -0.7957    3.0025   -0.1474 C   0  0  0  0  0  0  0  0  0  0  0  0
    1.1602   -0.2454    0.2268 C   0  0  0  0  0  0  0  0  0  0  0  0
    2.2422   -0.1457    0.9296 N   0  0  0  0  0  0  0  0  0  0  0  0
    2.4070    1.0329    1.7785 C   0  0  0  0  0  0  0  0  0  0  0  0
    2.6264    2.2668    0.9163 C   0  0  0  0  0  0  0  0  0  0  0  0
    1.5427    2.7484    0.2283 N   0  0  0  0  0  0  0  0  0  0  0  0
    1.0393   -1.4586   -0.6450 C   0  0  0  0  0  0  0  0  0  0  0  0
    3.7083    2.8628    0.8818 O   0  0  0  0  0  0  0  0  0  0  0  0
    0.5286   -1.3631   -1.9458 C   0  0  0  0  0  0  0  0  0  0  0  0
    0.4338   -2.5064   -2.7420 C   0  0  0  0  0  0  0  0  0  0  0  0
    0.8554   -3.7408   -2.2473 C   0  0  0  0  0  0  0  0  0  0  0  0
    1.3790   -3.8361   -0.9579 C   0  0  0  0  0  0  0  0  0  0  0  0
    1.4767   -2.6963   -0.1577 C   0  0  0  0  0  0  0  0  0  0  0  0
   -3.7211    0.6185   -0.0836 C   0  0  0  0  0  0  0  0  0  0  0  0
   -3.9714   -0.5755    0.0663 O   0  0  0  0  0  0  0  0  0  0  0  0
   -2.9248    3.2067   -0.3845 H   0  0  0  0  0  0  0  0  0  0  0  0
   -1.4737   -0.7917    0.2764 H   0  0  0  0  0  0  0  0  0  0  0  0
   -0.6340    4.0739   -0.2590 H   0  0  0  0  0  0  0  0  0  0  0  0
    3.2971    0.8915    2.4013 H   0  0  0  0  0  0  0  0  0  0  0  0
    1.5635    1.1780    2.4632 H   0  0  0  0  0  0  0  0  0  0  0  0
    1.6588    3.6849   -0.1490 H   0  0  0  0  0  0  0  0  0  0  0  0
    0.2132   -0.4069   -2.3574 H   0  0  0  0  0  0  0  0  0  0  0  0
    0.0350   -2.4335   -3.7524 H   0  0  0  0  0  0  0  0  0  0  0  0
    0.7810   -4.6304   -2.8708 H   0  0  0  0  0  0  0  0  0  0  0  0
    1.7131   -4.7991   -0.5758 H   0  0  0  0  0  0  0  0  0  0  0  0
    1.8873   -2.7804    0.8466 H   0  0  0  0  0  0  0  0  0  0  0  0
   -4.5246    1.3534   -0.2634 H   0  0  0  0  0  0  0  0  0  0  0  0
  1  2  2  0  0  0  0
  1  6  1  0  0  0  0
  1 21  1  0  0  0  0
  2  3  1  0  0  0  0
  2 19  1  0  0  0  0
  3  4  2  0  0  0  0
  3 22  1  0  0  0  0
  4  5  1  0  0  0  0
  4  7  1  0  0  0  0
  5  6  2  0  0  0  0
  5 11  1  0  0  0  0
  6 23  1  0  0  0  0
  7  8  2  0  0  0  0
  7 12  1  0  0  0  0
  8  9  1  0  0  0  0
  9 10  1  0  0  0  0
  9 24  1  0  0  0  0
  9 25  1  0  0  0  0
 10 11  1  0  0  0  0
 10 13  2  0  0  0  0
 11 26  1  0  0  0  0
 12 14  2  0  0  0  0
 12 18  1  0  0  0  0
 14 15  1  0  0  0  0
 14 27  1  0  0  0  0
 15 16  2  0  0  0  0
 15 28  1  0  0  0  0
 16 17  1  0  0  0  0
 16 29  1  0  0  0  0
 17 18  2  0  0  0  0
 17 30  1  0  0  0  0
 18 31  1  0  0  0  0
 19 20  2  0  0  0  0
 19 32  1  0  0  0  0
M  END
