10-4c
 OpenBabel04201808233D
Structure written by MMmdl.
 31 35  0  0  0  0  0  0  0  0999 V2000
   -3.4884   -2.1925   -0.7817 C   0  0  0  0  0  0  0  0  0  0  0  0
   -3.4567   -3.5628   -0.5413 C   0  0  0  0  0  0  0  0  0  0  0  0
   -2.2874   -4.1868   -0.1010 C   0  0  0  0  0  0  0  0  0  0  0  0
   -1.1512   -3.3893    0.0900 C   0  0  0  0  0  0  0  0  0  0  0  0
   -1.1515   -2.0044   -0.1439 C   0  0  0  0  0  0  0  0  0  0  0  0
   -2.3472   -1.4027   -0.5882 C   0  0  0  0  0  0  0  0  0  0  0  0
    0.1170   -3.7595    0.5161 N   0  0  0  0  0  0  0  0  0  0  0  0
    0.9421   -2.6657    0.5680 C   0  0  0  0  0  0  0  0  0  0  0  0
    0.1759   -1.5933    0.1672 C   0  0  0  0  0  0  0  0  0  0  0  0
    2.2757   -2.4819    0.9195 C   0  0  0  0  0  0  0  0  0  0  0  0
    2.8442   -1.2403    0.8732 N   0  0  0  0  0  0  0  0  0  0  0  0
    2.0680   -0.1948    0.4740 C   0  0  0  0  0  0  0  0  0  0  0  0
    0.7501   -0.3604    0.1238 C   0  0  0  0  0  0  0  0  0  0  0  0
    2.3473    1.1926    0.3202 C   0  0  0  0  0  0  0  0  0  0  0  0
    1.1603    1.8013   -0.1232 C   0  0  0  0  0  0  0  0  0  0  0  0
    0.1959    0.8092   -0.2326 N   0  0  0  0  0  0  0  0  0  0  0  0
    3.4906    1.9977    0.5127 C   0  0  0  0  0  0  0  0  0  0  0  0
    3.4132    3.3721    0.2586 C   0  0  0  0  0  0  0  0  0  0  0  0
    2.2218    3.9375   -0.1789 C   0  0  0  0  0  0  0  0  0  0  0  0
    1.0716    3.1751   -0.3805 C   0  0  0  0  0  0  0  0  0  0  0  0
    2.1754    5.2564   -0.4148 F   0  0  0  0  0  0  0  0  0  0  0  0
   -4.4111   -1.7259   -1.1248 H   0  0  0  0  0  0  0  0  0  0  0  0
   -4.3555   -4.1583   -0.6983 H   0  0  0  0  0  0  0  0  0  0  0  0
   -2.2654   -5.2580    0.0861 H   0  0  0  0  0  0  0  0  0  0  0  0
   -2.4096   -0.3368   -0.7860 H   0  0  0  0  0  0  0  0  0  0  0  0
    0.3887   -4.7057    0.7538 H   0  0  0  0  0  0  0  0  0  0  0  0
    2.9135   -3.2999    1.2406 H   0  0  0  0  0  0  0  0  0  0  0  0
   -0.7555    0.9746   -0.5335 H   0  0  0  0  0  0  0  0  0  0  0  0
    4.4233    1.5548    0.8552 H   0  0  0  0  0  0  0  0  0  0  0  0
    4.2869    4.0024    0.4031 H   0  0  0  0  0  0  0  0  0  0  0  0
    0.1510    3.6368   -0.7227 H   0  0  0  0  0  0  0  0  0  0  0  0
  1  2  2  0  0  0  0
  1  6  1  0  0  0  0
  1 22  1  0  0  0  0
  2  3  1  0  0  0  0
  2 23  1  0  0  0  0
  3  4  2  0  0  0  0
  3 24  1  0  0  0  0
  4  5  1  0  0  0  0
  4  7  1  0  0  0  0
  5  6  2  0  0  0  0
  5  9  1  0  0  0  0
  6 25  1  0  0  0  0
  7  8  1  0  0  0  0
  7 26  1  0  0  0  0
  8  9  2  0  0  0  0
  8 10  1  0  0  0  0
  9 13  1  0  0  0  0
 10 11  2  0  0  0  0
 10 27  1  0  0  0  0
 11 12  1  0  0  0  0
 12 13  2  0  0  0  0
 12 14  1  0  0  0  0
 13 16  1  0  0  0  0
 14 15  2  0  0  0  0
 14 17  1  0  0  0  0
 15 16  1  0  0  0  0
 15 20  1  0  0  0  0
 16 28  1  0  0  0  0
 17 18  2  0  0  0  0
 17 29  1  0  0  0  0
 18 19  1  0  0  0  0
 18 30  1  0  0  0  0
 19 20  2  0  0  0  0
 19 21  1  0  0  0  0
 20 31  1  0  0  0  0
M  END
