10-4e
 OpenBabel04201808233D
Structure written by MMmdl.
 35 39  0  0  0  0  0  0  0  0999 V2000
   -3.4825   -2.9157   -0.7960 C   0  0  0  0  0  0  0  0  0  0  0  0
   -3.4884   -4.2879   -0.5645 C   0  0  0  0  0  0  0  0  0  0  0  0
   -2.3384   -4.9455   -0.1222 C   0  0  0  0  0  0  0  0  0  0  0  0
   -1.1826   -4.1795    0.0802 C   0  0  0  0  0  0  0  0  0  0  0  0
   -1.1450   -2.7936   -0.1445 C   0  0  0  0  0  0  0  0  0  0  0  0
   -2.3219   -2.1576   -0.5912 C   0  0  0  0  0  0  0  0  0  0  0  0
    0.0731   -4.5858    0.5106 N   0  0  0  0  0  0  0  0  0  0  0  0
    0.9264   -3.5146    0.5742 C   0  0  0  0  0  0  0  0  0  0  0  0
    0.1909   -2.4197    0.1765 C   0  0  0  0  0  0  0  0  0  0  0  0
    2.2625   -3.3683    0.9341 C   0  0  0  0  0  0  0  0  0  0  0  0
    2.8638   -2.1418    0.8991 N   0  0  0  0  0  0  0  0  0  0  0  0
    2.1176   -1.0736    0.5029 C   0  0  0  0  0  0  0  0  0  0  0  0
    0.7977   -1.2022    0.1445 C   0  0  0  0  0  0  0  0  0  0  0  0
    2.4329    0.3069    0.3599 C   0  0  0  0  0  0  0  0  0  0  0  0
    1.2675    0.9489   -0.0846 C   0  0  0  0  0  0  0  0  0  0  0  0
    0.2771   -0.0156   -0.2067 N   0  0  0  0  0  0  0  0  0  0  0  0
    3.5905    1.0839    0.5619 C   0  0  0  0  0  0  0  0  0  0  0  0
    3.5522    2.4658    0.3173 C   0  0  0  0  0  0  0  0  0  0  0  0
    2.3816    3.0827   -0.1243 C   0  0  0  0  0  0  0  0  0  0  0  0
    1.2190    2.3275   -0.3319 C   0  0  0  0  0  0  0  0  0  0  0  0
    2.2367    4.4190   -0.3917 O   0  0  0  0  0  0  0  0  0  0  0  0
    3.3847    5.2437   -0.1971 C   0  0  0  0  0  0  0  0  0  0  0  0
   -4.3907   -2.4227   -1.1409 H   0  0  0  0  0  0  0  0  0  0  0  0
   -4.4017   -4.8584   -0.7302 H   0  0  0  0  0  0  0  0  0  0  0  0
   -2.3457   -6.0180    0.0579 H   0  0  0  0  0  0  0  0  0  0  0  0
   -2.3550   -1.0892   -0.7823 H   0  0  0  0  0  0  0  0  0  0  0  0
    0.3183   -5.5404    0.7435 H   0  0  0  0  0  0  0  0  0  0  0  0
    2.8767   -4.2049    1.2531 H   0  0  0  0  0  0  0  0  0  0  0  0
   -0.6676    0.1778   -0.5116 H   0  0  0  0  0  0  0  0  0  0  0  0
    4.5108    0.6163    0.9062 H   0  0  0  0  0  0  0  0  0  0  0  0
    4.4676    3.0275    0.4862 H   0  0  0  0  0  0  0  0  0  0  0  0
    0.3023    2.8007   -0.6761 H   0  0  0  0  0  0  0  0  0  0  0  0
    3.1031    6.2703   -0.4502 H   0  0  0  0  0  0  0  0  0  0  0  0
    4.1999    4.9467   -0.8650 H   0  0  0  0  0  0  0  0  0  0  0  0
    3.7034    5.2334    0.8503 H   0  0  0  0  0  0  0  0  0  0  0  0
  1  2  2  0  0  0  0
  1  6  1  0  0  0  0
  1 23  1  0  0  0  0
  2  3  1  0  0  0  0
  2 24  1  0  0  0  0
  3  4  2  0  0  0  0
  3 25  1  0  0  0  0
  4  5  1  0  0  0  0
  4  7  1  0  0  0  0
  5  6  2  0  0  0  0
  5  9  1  0  0  0  0
  6 26  1  0  0  0  0
  7  8  1  0  0  0  0
  7 27  1  0  0  0  0
  8  9  2  0  0  0  0
  8 10  1  0  0  0  0
  9 13  1  0  0  0  0
 10 11  2  0  0  0  0
 10 28  1  0  0  0  0
 11 12  1  0  0  0  0
 12 13  2  0  0  0  0
 12 14  1  0  0  0  0
 13 16  1  0  0  0  0
 14 15  2  0  0  0  0
 14 17  1  0  0  0  0
 15 16  1  0  0  0  0
 15 20  1  0  0  0  0
 16 29  1  0  0  0  0
 17 18  2  0  0  0  0
 17 30  1  0  0  0  0
 18 19  1  0  0  0  0
 18 31  1  0  0  0  0
 19 20  2  0  0  0  0
 19 21  1  0  0  0  0
 20 32  1  0  0  0  0
 21 22  1  0  0  0  0
 22 33  1  0  0  0  0
 22 34  1  0  0  0  0
 22 35  1  0  0  0  0
M  END
