10-4h
 OpenBabel04201808233D
Structure written by MMmdl.
 35 39  0  0  0  0  0  0  0  0999 V2000
   -3.9615   -2.3769   -1.4147 C   0  0  0  0  0  0  0  0  0  0  0  0
   -3.9292   -3.7617   -1.2805 C   0  0  0  0  0  0  0  0  0  0  0  0
   -2.7665   -4.4152   -0.8661 C   0  0  0  0  0  0  0  0  0  0  0  0
   -1.6375   -3.6321   -0.5909 C   0  0  0  0  0  0  0  0  0  0  0  0
   -1.6387   -2.2332   -0.7167 C   0  0  0  0  0  0  0  0  0  0  0  0
   -2.8276   -1.6018   -1.1373 C   0  0  0  0  0  0  0  0  0  0  0  0
   -0.3765   -4.0311   -0.1694 N   0  0  0  0  0  0  0  0  0  0  0  0
    0.4429   -2.9425   -0.0160 C   0  0  0  0  0  0  0  0  0  0  0  0
   -0.3196   -1.8442   -0.3478 C   0  0  0  0  0  0  0  0  0  0  0  0
    1.7685   -2.7831    0.3755 C   0  0  0  0  0  0  0  0  0  0  0  0
    2.3327   -1.5401    0.4372 N   0  0  0  0  0  0  0  0  0  0  0  0
    1.5602   -0.4688    0.1050 C   0  0  0  0  0  0  0  0  0  0  0  0
    0.2502   -0.6103   -0.2836 C   0  0  0  0  0  0  0  0  0  0  0  0
    1.8359    0.9266    0.0649 C   0  0  0  0  0  0  0  0  0  0  0  0
    0.6583    1.5642   -0.3528 C   0  0  0  0  0  0  0  0  0  0  0  0
   -0.3007    0.5826   -0.5590 N   0  0  0  0  0  0  0  0  0  0  0  0
    2.9690    1.7194    0.3414 C   0  0  0  0  0  0  0  0  0  0  0  0
    2.9024    3.1123    0.1969 C   0  0  0  0  0  0  0  0  0  0  0  0
    1.7150    3.7137   -0.2208 C   0  0  0  0  0  0  0  0  0  0  0  0
    0.5722    2.9520   -0.5031 C   0  0  0  0  0  0  0  0  0  0  0  0
    4.0681    3.7667    0.4959 O   0  0  0  0  0  0  0  0  0  0  0  0
    4.0593    5.1880    0.3704 C   0  0  0  0  0  0  0  0  0  0  0  0
   -4.8789   -1.8874   -1.7394 H   0  0  0  0  0  0  0  0  0  0  0  0
   -4.8223   -4.3454   -1.5014 H   0  0  0  0  0  0  0  0  0  0  0  0
   -2.7439   -5.4975   -0.7621 H   0  0  0  0  0  0  0  0  0  0  0  0
   -2.8900   -0.5239   -1.2531 H   0  0  0  0  0  0  0  0  0  0  0  0
   -0.1058   -4.9922   -0.0004 H   0  0  0  0  0  0  0  0  0  0  0  0
    2.4032   -3.6220    0.6448 H   0  0  0  0  0  0  0  0  0  0  0  0
   -1.2462    0.7699   -0.8654 H   0  0  0  0  0  0  0  0  0  0  0  0
    3.8920    1.2443    0.6666 H   0  0  0  0  0  0  0  0  0  0  0  0
    1.6342    4.7917   -0.3419 H   0  0  0  0  0  0  0  0  0  0  0  0
   -0.3482    3.4316   -0.8281 H   0  0  0  0  0  0  0  0  0  0  0  0
    5.0543    5.5519    0.6442 H   0  0  0  0  0  0  0  0  0  0  0  0
    3.3375    5.6392    1.0591 H   0  0  0  0  0  0  0  0  0  0  0  0
    3.8662    5.4902   -0.6641 H   0  0  0  0  0  0  0  0  0  0  0  0
  1  2  2  0  0  0  0
  1  6  1  0  0  0  0
  1 23  1  0  0  0  0
  2  3  1  0  0  0  0
  2 24  1  0  0  0  0
  3  4  2  0  0  0  0
  3 25  1  0  0  0  0
  4  5  1  0  0  0  0
  4  7  1  0  0  0  0
  5  6  2  0  0  0  0
  5  9  1  0  0  0  0
  6 26  1  0  0  0  0
  7  8  1  0  0  0  0
  7 27  1  0  0  0  0
  8  9  2  0  0  0  0
  8 10  1  0  0  0  0
  9 13  1  0  0  0  0
 10 11  2  0  0  0  0
 10 28  1  0  0  0  0
 11 12  1  0  0  0  0
 12 13  2  0  0  0  0
 12 14  1  0  0  0  0
 13 16  1  0  0  0  0
 14 15  2  0  0  0  0
 14 17  1  0  0  0  0
 15 16  1  0  0  0  0
 15 20  1  0  0  0  0
 16 29  1  0  0  0  0
 17 18  2  0  0  0  0
 17 30  1  0  0  0  0
 18 19  1  0  0  0  0
 18 21  1  0  0  0  0
 19 20  2  0  0  0  0
 19 31  1  0  0  0  0
 20 32  1  0  0  0  0
 21 22  1  0  0  0  0
 22 33  1  0  0  0  0
 22 34  1  0  0  0  0
 22 35  1  0  0  0  0
M  END
