5-18
 OpenBabel04201808233D
Structure written by MMmdl.
 34 38  0  0  0  0  0  0  0  0999 V2000
    0.0364   -1.4177    0.8952 C   0  0  0  0  0  0  0  0  0  0  0  0
   -1.3395   -1.3103    1.2459 C   0  0  0  0  0  0  0  0  0  0  0  0
   -1.6999   -2.6082    1.6437 C   0  0  0  0  0  0  0  0  0  0  0  0
   -0.5839   -3.4258    1.5278 N   0  0  0  0  0  0  0  0  0  0  0  0
    0.4897   -2.7069    1.0690 C   0  0  0  0  0  0  0  0  0  0  0  0
   -2.3258   -0.3028    1.2828 C   0  0  0  0  0  0  0  0  0  0  0  0
   -3.6223   -0.6197    1.7095 C   0  0  0  0  0  0  0  0  0  0  0  0
   -3.9489   -1.9156    2.0975 C   0  0  0  0  0  0  0  0  0  0  0  0
   -2.9937   -2.9341    2.0718 C   0  0  0  0  0  0  0  0  0  0  0  0
    1.8125   -3.0290    0.7822 C   0  0  0  0  0  0  0  0  0  0  0  0
    2.6788   -2.0760    0.3258 N   0  0  0  0  0  0  0  0  0  0  0  0
    2.2082   -0.8082    0.1615 C   0  0  0  0  0  0  0  0  0  0  0  0
    0.9065   -0.4757    0.4402 C   0  0  0  0  0  0  0  0  0  0  0  0
    2.8345    0.3896   -0.2865 C   0  0  0  0  0  0  0  0  0  0  0  0
    1.8616    1.4054   -0.2553 C   0  0  0  0  0  0  0  0  0  0  0  0
    0.6823    0.8251    0.2008 N   0  0  0  0  0  0  0  0  0  0  0  0
    4.1377    0.7089   -0.7170 C   0  0  0  0  0  0  0  0  0  0  0  0
    4.4311    2.0189   -1.1011 C   0  0  0  0  0  0  0  0  0  0  0  0
    3.4484    3.0062   -1.0607 C   0  0  0  0  0  0  0  0  0  0  0  0
    2.1336    2.7338   -0.6364 C   0  0  0  0  0  0  0  0  0  0  0  0
    1.1237    3.8462   -0.6196 C   0  0  0  0  0  0  0  0  0  0  0  0
   -0.5707   -4.4133    1.7519 H   0  0  0  0  0  0  0  0  0  0  0  0
   -2.1081    0.7193    0.9878 H   0  0  0  0  0  0  0  0  0  0  0  0
   -4.3829    0.1598    1.7372 H   0  0  0  0  0  0  0  0  0  0  0  0
   -4.9632   -2.1402    2.4260 H   0  0  0  0  0  0  0  0  0  0  0  0
   -3.2516   -3.9461    2.3756 H   0  0  0  0  0  0  0  0  0  0  0  0
    2.2096   -4.0321    0.9052 H   0  0  0  0  0  0  0  0  0  0  0  0
   -0.1866    1.3271    0.3219 H   0  0  0  0  0  0  0  0  0  0  0  0
    4.9085   -0.0581   -0.7504 H   0  0  0  0  0  0  0  0  0  0  0  0
    5.4369    2.2700   -1.4351 H   0  0  0  0  0  0  0  0  0  0  0  0
    3.7132    4.0191   -1.3685 H   0  0  0  0  0  0  0  0  0  0  0  0
    0.9817    4.2381   -1.6319 H   0  0  0  0  0  0  0  0  0  0  0  0
    1.4684    4.6561    0.0314 H   0  0  0  0  0  0  0  0  0  0  0  0
    0.1517    3.5086   -0.2492 H   0  0  0  0  0  0  0  0  0  0  0  0
  1  2  1  0  0  0  0
  1  5  2  0  0  0  0
  1 13  1  0  0  0  0
  2  3  2  0  0  0  0
  2  6  1  0  0  0  0
  3  4  1  0  0  0  0
  3  9  1  0  0  0  0
  4  5  1  0  0  0  0
  4 22  1  0  0  0  0
  5 10  1  0  0  0  0
  6  7  2  0  0  0  0
  6 23  1  0  0  0  0
  7  8  1  0  0  0  0
  7 24  1  0  0  0  0
  8  9  2  0  0  0  0
  8 25  1  0  0  0  0
  9 26  1  0  0  0  0
 10 11  2  0  0  0  0
 10 27  1  0  0  0  0
 11 12  1  0  0  0  0
 12 13  2  0  0  0  0
 12 14  1  0  0  0  0
 13 16  1  0  0  0  0
 14 15  2  0  0  0  0
 14 17  1  0  0  0  0
 15 16  1  0  0  0  0
 15 20  1  0  0  0  0
 16 28  1  0  0  0  0
 17 18  2  0  0  0  0
 17 29  1  0  0  0  0
 18 19  1  0  0  0  0
 18 30  1  0  0  0  0
 19 20  2  0  0  0  0
 19 31  1  0  0  0  0
 20 21  1  0  0  0  0
 21 32  1  0  0  0  0
 21 33  1  0  0  0  0
 21 34  1  0  0  0  0
M  END
