5-21
 OpenBabel04201808233D
Structure written by MMmdl.
 34 38  0  0  0  0  0  0  0  0999 V2000
   -0.3160   -1.0394    0.9933 C   0  0  0  0  0  0  0  0  0  0  0  0
   -1.6798   -0.9116    1.3833 C   0  0  0  0  0  0  0  0  0  0  0  0
   -2.0461   -2.2025    1.7984 C   0  0  0  0  0  0  0  0  0  0  0  0
   -0.9452   -3.0357    1.6544 N   0  0  0  0  0  0  0  0  0  0  0  0
    0.1239   -2.3337    1.1608 C   0  0  0  0  0  0  0  0  0  0  0  0
   -2.6510    0.1093    1.4435 C   0  0  0  0  0  0  0  0  0  0  0  0
   -3.9386   -0.1874    1.9099 C   0  0  0  0  0  0  0  0  0  0  0  0
   -4.2713   -1.4768    2.3143 C   0  0  0  0  0  0  0  0  0  0  0  0
   -3.3311   -2.5084    2.2661 C   0  0  0  0  0  0  0  0  0  0  0  0
    1.4327   -2.6748    0.8374 C   0  0  0  0  0  0  0  0  0  0  0  0
    2.2971   -1.7359    0.3517 N   0  0  0  0  0  0  0  0  0  0  0  0
    1.8444   -0.4602    0.1936 C   0  0  0  0  0  0  0  0  0  0  0  0
    0.5536   -0.1117    0.5085 C   0  0  0  0  0  0  0  0  0  0  0  0
    2.4791    0.7305   -0.2795 C   0  0  0  0  0  0  0  0  0  0  0  0
    1.5070    1.7456   -0.2276 C   0  0  0  0  0  0  0  0  0  0  0  0
    0.3363    1.1893    0.2687 N   0  0  0  0  0  0  0  0  0  0  0  0
    3.7798    1.0492   -0.7510 C   0  0  0  0  0  0  0  0  0  0  0  0
    4.0229    2.3734   -1.1723 C   0  0  0  0  0  0  0  0  0  0  0  0
    3.0369    3.3558   -1.1077 C   0  0  0  0  0  0  0  0  0  0  0  0
    1.7608    3.0611   -0.6299 C   0  0  0  0  0  0  0  0  0  0  0  0
    4.8913    0.0413   -0.8714 C   0  0  0  0  0  0  0  0  0  0  0  0
   -0.9387   -4.0222    1.8834 H   0  0  0  0  0  0  0  0  0  0  0  0
   -2.4281    1.1269    1.1368 H   0  0  0  0  0  0  0  0  0  0  0  0
   -4.6873    0.6026    1.9557 H   0  0  0  0  0  0  0  0  0  0  0  0
   -5.2783   -1.6858    2.6737 H   0  0  0  0  0  0  0  0  0  0  0  0
   -3.5937   -3.5152    2.5828 H   0  0  0  0  0  0  0  0  0  0  0  0
    1.8200   -3.6824    0.9536 H   0  0  0  0  0  0  0  0  0  0  0  0
   -0.5210    1.7076    0.4070 H   0  0  0  0  0  0  0  0  0  0  0  0
    5.0066    2.6455   -1.5573 H   0  0  0  0  0  0  0  0  0  0  0  0
    3.2651    4.3692   -1.4367 H   0  0  0  0  0  0  0  0  0  0  0  0
    0.9923    3.8289   -0.5810 H   0  0  0  0  0  0  0  0  0  0  0  0
    4.9036   -0.3780   -1.8821 H   0  0  0  0  0  0  0  0  0  0  0  0
    4.7699   -0.7734   -0.1522 H   0  0  0  0  0  0  0  0  0  0  0  0
    5.8614    0.5074   -0.6692 H   0  0  0  0  0  0  0  0  0  0  0  0
  1  2  1  0  0  0  0
  1  5  2  0  0  0  0
  1 13  1  0  0  0  0
  2  3  2  0  0  0  0
  2  6  1  0  0  0  0
  3  4  1  0  0  0  0
  3  9  1  0  0  0  0
  4  5  1  0  0  0  0
  4 22  1  0  0  0  0
  5 10  1  0  0  0  0
  6  7  2  0  0  0  0
  6 23  1  0  0  0  0
  7  8  1  0  0  0  0
  7 24  1  0  0  0  0
  8  9  2  0  0  0  0
  8 25  1  0  0  0  0
  9 26  1  0  0  0  0
 10 11  2  0  0  0  0
 10 27  1  0  0  0  0
 11 12  1  0  0  0  0
 12 13  2  0  0  0  0
 12 14  1  0  0  0  0
 13 16  1  0  0  0  0
 14 15  2  0  0  0  0
 14 17  1  0  0  0  0
 15 16  1  0  0  0  0
 15 20  1  0  0  0  0
 16 28  1  0  0  0  0
 17 18  2  0  0  0  0
 17 21  1  0  0  0  0
 18 19  1  0  0  0  0
 18 29  1  0  0  0  0
 19 20  2  0  0  0  0
 19 30  1  0  0  0  0
 20 31  1  0  0  0  0
 21 32  1  0  0  0  0
 21 33  1  0  0  0  0
 21 34  1  0  0  0  0
M  END
