5-24
 OpenBabel04201808233D
Structure written by MMmdl.
 34 38  0  0  0  0  0  0  0  0999 V2000
   -0.0232   -0.9360    0.9262 C   0  0  0  0  0  0  0  0  0  0  0  0
   -1.4405   -0.9392    1.1700 C   0  0  0  0  0  0  0  0  0  0  0  0
   -1.7224   -2.2265    1.6585 C   0  0  0  0  0  0  0  0  0  0  0  0
   -0.5518   -2.9612    1.6384 N   0  0  0  0  0  0  0  0  0  0  0  0
    0.4731   -2.2117    1.1258 C   0  0  0  0  0  0  0  0  0  0  0  0
   -2.5376   -0.0655    1.0029 C   0  0  0  0  0  0  0  0  0  0  0  0
   -3.8264   -0.4605    1.3889 C   0  0  0  0  0  0  0  0  0  0  0  0
   -4.0526   -1.7243    1.9179 C   0  0  0  0  0  0  0  0  0  0  0  0
   -3.0050   -2.6345    2.0519 C   0  0  0  0  0  0  0  0  0  0  0  0
    1.7899   -2.5209    0.8173 C   0  0  0  0  0  0  0  0  0  0  0  0
    2.6086   -1.5827    0.2794 N   0  0  0  0  0  0  0  0  0  0  0  0
    2.1254   -0.3203    0.1301 C   0  0  0  0  0  0  0  0  0  0  0  0
    0.8363    0.0368    0.4838 C   0  0  0  0  0  0  0  0  0  0  0  0
    2.7536    0.8344   -0.4052 C   0  0  0  0  0  0  0  0  0  0  0  0
    1.8368    1.8849   -0.2836 C   0  0  0  0  0  0  0  0  0  0  0  0
    0.7075    1.3781    0.3644 N   0  0  0  0  0  0  0  0  0  0  0  0
    4.0174    1.0908   -0.9778 C   0  0  0  0  0  0  0  0  0  0  0  0
    4.3240    2.3801   -1.4242 C   0  0  0  0  0  0  0  0  0  0  0  0
    3.3958    3.4094   -1.3016 C   0  0  0  0  0  0  0  0  0  0  0  0
    2.1410    3.1842   -0.7266 C   0  0  0  0  0  0  0  0  0  0  0  0
   -0.2631    2.2564    0.9818 C   0  0  0  0  0  0  0  0  0  0  0  0
   -0.4810   -3.9347    1.9083 H   0  0  0  0  0  0  0  0  0  0  0  0
   -2.4251    0.9106    0.5465 H   0  0  0  0  0  0  0  0  0  0  0  0
   -4.6598    0.2289    1.2598 H   0  0  0  0  0  0  0  0  0  0  0  0
   -5.0605   -2.0166    2.2099 H   0  0  0  0  0  0  0  0  0  0  0  0
   -3.1861   -3.6361    2.4356 H   0  0  0  0  0  0  0  0  0  0  0  0
    2.2065   -3.5135    0.9591 H   0  0  0  0  0  0  0  0  0  0  0  0
    4.7464    0.2893   -1.0771 H   0  0  0  0  0  0  0  0  0  0  0  0
    5.2973    2.5781   -1.8708 H   0  0  0  0  0  0  0  0  0  0  0  0
    3.6510    4.4086   -1.6535 H   0  0  0  0  0  0  0  0  0  0  0  0
    1.4290    4.0008   -0.6305 H   0  0  0  0  0  0  0  0  0  0  0  0
    0.2414    3.1621    1.3315 H   0  0  0  0  0  0  0  0  0  0  0  0
   -0.6983    1.7725    1.8570 H   0  0  0  0  0  0  0  0  0  0  0  0
   -1.0121    2.5214    0.2334 H   0  0  0  0  0  0  0  0  0  0  0  0
  1  2  1  0  0  0  0
  1  5  2  0  0  0  0
  1 13  1  0  0  0  0
  2  3  2  0  0  0  0
  2  6  1  0  0  0  0
  3  4  1  0  0  0  0
  3  9  1  0  0  0  0
  4  5  1  0  0  0  0
  4 22  1  0  0  0  0
  5 10  1  0  0  0  0
  6  7  2  0  0  0  0
  6 23  1  0  0  0  0
  7  8  1  0  0  0  0
  7 24  1  0  0  0  0
  8  9  2  0  0  0  0
  8 25  1  0  0  0  0
  9 26  1  0  0  0  0
 10 11  2  0  0  0  0
 10 27  1  0  0  0  0
 11 12  1  0  0  0  0
 12 13  2  0  0  0  0
 12 14  1  0  0  0  0
 13 16  1  0  0  0  0
 14 15  2  0  0  0  0
 14 17  1  0  0  0  0
 15 16  1  0  0  0  0
 15 20  1  0  0  0  0
 16 21  1  0  0  0  0
 17 18  2  0  0  0  0
 17 28  1  0  0  0  0
 18 19  1  0  0  0  0
 18 29  1  0  0  0  0
 19 20  2  0  0  0  0
 19 30  1  0  0  0  0
 20 31  1  0  0  0  0
 21 32  1  0  0  0  0
 21 33  1  0  0  0  0
 21 34  1  0  0  0  0
M  END
