5-25
 OpenBabel04201808233D
Structure written by MMmdl.
 37 41  0  0  0  0  0  0  0  0999 V2000
   -0.0015   -0.6062    0.7954 C   0  0  0  0  0  0  0  0  0  0  0  0
   -1.4155   -0.6080    1.0435 C   0  0  0  0  0  0  0  0  0  0  0  0
   -1.7084   -1.9108    1.4869 C   0  0  0  0  0  0  0  0  0  0  0  0
   -0.5375   -2.6531    1.4344 N   0  0  0  0  0  0  0  0  0  0  0  0
    0.4898   -1.8940    0.9307 C   0  0  0  0  0  0  0  0  0  0  0  0
   -2.5007    0.2862    0.9044 C   0  0  0  0  0  0  0  0  0  0  0  0
   -3.7950   -0.0982    1.2773 C   0  0  0  0  0  0  0  0  0  0  0  0
   -4.0397   -1.3734    1.7647 C   0  0  0  0  0  0  0  0  0  0  0  0
   -3.0054   -2.3030    1.8667 C   0  0  0  0  0  0  0  0  0  0  0  0
    1.8040   -2.1816    0.5747 C   0  0  0  0  0  0  0  0  0  0  0  0
    2.6118   -1.2195    0.0633 N   0  0  0  0  0  0  0  0  0  0  0  0
    2.1305    0.0488   -0.0111 C   0  0  0  0  0  0  0  0  0  0  0  0
    0.8510    0.3873    0.3879 C   0  0  0  0  0  0  0  0  0  0  0  0
    2.7487    1.2288   -0.5005 C   0  0  0  0  0  0  0  0  0  0  0  0
    1.8382    2.2728   -0.3008 C   0  0  0  0  0  0  0  0  0  0  0  0
    0.7245    1.7337    0.3483 N   0  0  0  0  0  0  0  0  0  0  0  0
    3.9990    1.5138   -1.0889 C   0  0  0  0  0  0  0  0  0  0  0  0
    4.2980    2.8248   -1.4730 C   0  0  0  0  0  0  0  0  0  0  0  0
    3.3759    3.8475   -1.2723 C   0  0  0  0  0  0  0  0  0  0  0  0
    2.1351    3.5938   -0.6795 C   0  0  0  0  0  0  0  0  0  0  0  0
   -0.2159    2.5796    1.0526 C   0  0  0  0  0  0  0  0  0  0  0  0
   -0.4442   -4.0519    1.8021 C   0  0  0  0  0  0  0  0  0  0  0  0
   -2.3715    1.2733    0.4764 H   0  0  0  0  0  0  0  0  0  0  0  0
   -4.6172    0.6080    1.1699 H   0  0  0  0  0  0  0  0  0  0  0  0
   -5.0516   -1.6605    2.0476 H   0  0  0  0  0  0  0  0  0  0  0  0
   -3.2132   -3.3120    2.2163 H   0  0  0  0  0  0  0  0  0  0  0  0
    2.2306   -3.1769    0.6535 H   0  0  0  0  0  0  0  0  0  0  0  0
    4.7235    0.7179   -1.2484 H   0  0  0  0  0  0  0  0  0  0  0  0
    5.2607    3.0453   -1.9319 H   0  0  0  0  0  0  0  0  0  0  0  0
    3.6255    4.8639   -1.5760 H   0  0  0  0  0  0  0  0  0  0  0  0
    1.4280    4.4048   -0.5208 H   0  0  0  0  0  0  0  0  0  0  0  0
    0.3166    3.4426    1.4637 H   0  0  0  0  0  0  0  0  0  0  0  0
   -0.6489    2.0371    1.8938 H   0  0  0  0  0  0  0  0  0  0  0  0
   -0.9712    2.9209    0.3425 H   0  0  0  0  0  0  0  0  0  0  0  0
    0.6031   -4.3421    1.9071 H   0  0  0  0  0  0  0  0  0  0  0  0
   -0.9233   -4.6425    1.0173 H   0  0  0  0  0  0  0  0  0  0  0  0
   -0.9491   -4.1978    2.7606 H   0  0  0  0  0  0  0  0  0  0  0  0
  1  2  1  0  0  0  0
  1  5  2  0  0  0  0
  1 13  1  0  0  0  0
  2  3  2  0  0  0  0
  2  6  1  0  0  0  0
  3  4  1  0  0  0  0
  3  9  1  0  0  0  0
  4  5  1  0  0  0  0
  4 22  1  0  0  0  0
  5 10  1  0  0  0  0
  6  7  2  0  0  0  0
  6 23  1  0  0  0  0
  7  8  1  0  0  0  0
  7 24  1  0  0  0  0
  8  9  2  0  0  0  0
  8 25  1  0  0  0  0
  9 26  1  0  0  0  0
 10 11  2  0  0  0  0
 10 27  1  0  0  0  0
 11 12  1  0  0  0  0
 12 13  2  0  0  0  0
 12 14  1  0  0  0  0
 13 16  1  0  0  0  0
 14 15  2  0  0  0  0
 14 17  1  0  0  0  0
 15 16  1  0  0  0  0
 15 20  1  0  0  0  0
 16 21  1  0  0  0  0
 17 18  2  0  0  0  0
 17 28  1  0  0  0  0
 18 19  1  0  0  0  0
 18 29  1  0  0  0  0
 19 20  2  0  0  0  0
 19 30  1  0  0  0  0
 20 31  1  0  0  0  0
 21 32  1  0  0  0  0
 21 33  1  0  0  0  0
 21 34  1  0  0  0  0
 22 35  1  0  0  0  0
 22 36  1  0  0  0  0
 22 37  1  0  0  0  0
M  END
