5-28
 OpenBabel04201808233D
Structure written by MMmdl.
 37 41  0  0  0  0  0  0  0  0999 V2000
   -0.0707    0.1102    0.6378 C   0  0  0  0  0  0  0  0  0  0  0  0
   -1.4573    0.3930    0.7980 C   0  0  0  0  0  0  0  0  0  0  0  0
   -1.9769   -0.7551    1.4154 C   0  0  0  0  0  0  0  0  0  0  0  0
   -0.9388   -1.6561    1.6018 N   0  0  0  0  0  0  0  0  0  0  0  0
    0.2427   -1.1385    1.1296 C   0  0  0  0  0  0  0  0  0  0  0  0
   -2.3419    1.4529    0.5088 C   0  0  0  0  0  0  0  0  0  0  0  0
   -3.6978    1.3329    0.8416 C   0  0  0  0  0  0  0  0  0  0  0  0
   -4.1826    0.1811    1.4537 C   0  0  0  0  0  0  0  0  0  0  0  0
   -3.3310   -0.8846    1.7521 C   0  0  0  0  0  0  0  0  0  0  0  0
    1.5587   -1.6214    1.0739 C   0  0  0  0  0  0  0  0  0  0  0  0
    2.5390   -0.8376    0.5154 N   0  0  0  0  0  0  0  0  0  0  0  0
    2.2050    0.3911    0.0381 C   0  0  0  0  0  0  0  0  0  0  0  0
    0.9195    0.8674    0.0945 C   0  0  0  0  0  0  0  0  0  0  0  0
    2.9800    1.4129   -0.5799 C   0  0  0  0  0  0  0  0  0  0  0  0
    2.1040    2.4716   -0.8689 C   0  0  0  0  0  0  0  0  0  0  0  0
    0.8391    2.0974   -0.4374 N   0  0  0  0  0  0  0  0  0  0  0  0
    4.3403    1.5491   -0.9254 C   0  0  0  0  0  0  0  0  0  0  0  0
    4.7782    2.7268   -1.5424 C   0  0  0  0  0  0  0  0  0  0  0  0
    3.8850    3.7608   -1.8169 C   0  0  0  0  0  0  0  0  0  0  0  0
    2.5305    3.6540   -1.4858 C   0  0  0  0  0  0  0  0  0  0  0  0
    1.9692   -2.9803    1.5765 C   0  0  0  0  0  0  0  0  0  0  0  0
    1.7651   -4.0551    0.5199 C   0  0  0  0  0  0  0  0  0  0  0  0
   -1.0452   -2.5678    2.0291 H   0  0  0  0  0  0  0  0  0  0  0  0
   -2.0006    2.3668    0.0320 H   0  0  0  0  0  0  0  0  0  0  0  0
   -4.3792    2.1528    0.6175 H   0  0  0  0  0  0  0  0  0  0  0  0
   -5.2405    0.1084    1.7042 H   0  0  0  0  0  0  0  0  0  0  0  0
   -3.7122   -1.7839    2.2304 H   0  0  0  0  0  0  0  0  0  0  0  0
    0.0168    2.6794   -0.5252 H   0  0  0  0  0  0  0  0  0  0  0  0
    5.0434    0.7462   -0.7144 H   0  0  0  0  0  0  0  0  0  0  0  0
    5.8285    2.8344   -1.8102 H   0  0  0  0  0  0  0  0  0  0  0  0
    4.2471    4.6692   -2.2979 H   0  0  0  0  0  0  0  0  0  0  0  0
    1.8380    4.4639   -1.7023 H   0  0  0  0  0  0  0  0  0  0  0  0
    1.3970   -3.2298    2.4773 H   0  0  0  0  0  0  0  0  0  0  0  0
    3.0250   -2.9520    1.8706 H   0  0  0  0  0  0  0  0  0  0  0  0
    2.0826   -5.0295    0.9044 H   0  0  0  0  0  0  0  0  0  0  0  0
    2.3477   -3.8384   -0.3820 H   0  0  0  0  0  0  0  0  0  0  0  0
    0.7122   -4.1319    0.2284 H   0  0  0  0  0  0  0  0  0  0  0  0
  1  2  1  0  0  0  0
  1  5  2  0  0  0  0
  1 13  1  0  0  0  0
  2  3  2  0  0  0  0
  2  6  1  0  0  0  0
  3  4  1  0  0  0  0
  3  9  1  0  0  0  0
  4  5  1  0  0  0  0
  4 23  1  0  0  0  0
  5 10  1  0  0  0  0
  6  7  2  0  0  0  0
  6 24  1  0  0  0  0
  7  8  1  0  0  0  0
  7 25  1  0  0  0  0
  8  9  2  0  0  0  0
  8 26  1  0  0  0  0
  9 27  1  0  0  0  0
 10 11  2  0  0  0  0
 10 21  1  0  0  0  0
 11 12  1  0  0  0  0
 12 13  2  0  0  0  0
 12 14  1  0  0  0  0
 13 16  1  0  0  0  0
 14 15  2  0  0  0  0
 14 17  1  0  0  0  0
 15 16  1  0  0  0  0
 15 20  1  0  0  0  0
 16 28  1  0  0  0  0
 17 18  2  0  0  0  0
 17 29  1  0  0  0  0
 18 19  1  0  0  0  0
 18 30  1  0  0  0  0
 19 20  2  0  0  0  0
 19 31  1  0  0  0  0
 20 32  1  0  0  0  0
 21 22  1  0  0  0  0
 21 33  1  0  0  0  0
 21 34  1  0  0  0  0
 22 35  1  0  0  0  0
 22 36  1  0  0  0  0
 22 37  1  0  0  0  0
M  END
