9-6
 OpenBabel04201808233D
Structure written by MMmdl.
 31 35  0  0  0  0  0  0  0  0999 V2000
   -0.3081   -1.0087    1.0911 C   0  0  0  0  0  0  0  0  0  0  0  0
   -1.6884   -0.9082    1.4258 C   0  0  0  0  0  0  0  0  0  0  0  0
   -2.0338   -2.1950    1.8701 C   0  0  0  0  0  0  0  0  0  0  0  0
   -0.9053   -3.0000    1.7950 N   0  0  0  0  0  0  0  0  0  0  0  0
    0.1619   -2.2836    1.3180 C   0  0  0  0  0  0  0  0  0  0  0  0
   -2.6892    0.0855    1.4155 C   0  0  0  0  0  0  0  0  0  0  0  0
   -3.9848   -0.2334    1.8432 C   0  0  0  0  0  0  0  0  0  0  0  0
   -4.2965   -1.5182    2.2781 C   0  0  0  0  0  0  0  0  0  0  0  0
   -3.3267   -2.5229    2.2997 C   0  0  0  0  0  0  0  0  0  0  0  0
    1.4918   -2.5976    1.0552 C   0  0  0  0  0  0  0  0  0  0  0  0
    2.3489   -1.6505    0.5700 N   0  0  0  0  0  0  0  0  0  0  0  0
    1.8624   -0.3971    0.3533 C   0  0  0  0  0  0  0  0  0  0  0  0
    0.5524   -0.0720    0.6079 C   0  0  0  0  0  0  0  0  0  0  0  0
    2.4777    0.7900   -0.1344 C   0  0  0  0  0  0  0  0  0  0  0  0
    1.4884    1.7868   -0.1486 C   0  0  0  0  0  0  0  0  0  0  0  0
    0.3117    1.2162    0.3172 N   0  0  0  0  0  0  0  0  0  0  0  0
    3.7790    1.1195   -0.5667 C   0  0  0  0  0  0  0  0  0  0  0  0
    4.0399    2.4252   -0.9940 C   0  0  0  0  0  0  0  0  0  0  0  0
    3.0421    3.3979   -0.9993 C   0  0  0  0  0  0  0  0  0  0  0  0
    1.7438    3.0955   -0.5754 C   0  0  0  0  0  0  0  0  0  0  0  0
    5.7840    2.8770   -1.5760 Br  0  0  0  0  0  0  0  0  0  0  0  0
   -0.8801   -3.9779    2.0571 H   0  0  0  0  0  0  0  0  0  0  0  0
   -2.4830    1.0984    1.0829 H   0  0  0  0  0  0  0  0  0  0  0  0
   -4.7566    0.5354    1.8344 H   0  0  0  0  0  0  0  0  0  0  0  0
   -5.3103   -1.7447    2.6065 H   0  0  0  0  0  0  0  0  0  0  0  0
   -3.5729   -3.5261    2.6400 H   0  0  0  0  0  0  0  0  0  0  0  0
    1.9017   -3.5894    1.2201 H   0  0  0  0  0  0  0  0  0  0  0  0
   -0.5623    1.7167    0.4091 H   0  0  0  0  0  0  0  0  0  0  0  0
    4.5580    0.3617   -0.5630 H   0  0  0  0  0  0  0  0  0  0  0  0
    3.2611    4.4103   -1.3351 H   0  0  0  0  0  0  0  0  0  0  0  0
    0.9650    3.8543   -0.5795 H   0  0  0  0  0  0  0  0  0  0  0  0
  1  2  1  0  0  0  0
  1  5  2  0  0  0  0
  1 13  1  0  0  0  0
  2  3  2  0  0  0  0
  2  6  1  0  0  0  0
  3  4  1  0  0  0  0
  3  9  1  0  0  0  0
  4  5  1  0  0  0  0
  4 22  1  0  0  0  0
  5 10  1  0  0  0  0
  6  7  2  0  0  0  0
  6 23  1  0  0  0  0
  7  8  1  0  0  0  0
  7 24  1  0  0  0  0
  8  9  2  0  0  0  0
  8 25  1  0  0  0  0
  9 26  1  0  0  0  0
 10 11  2  0  0  0  0
 10 27  1  0  0  0  0
 11 12  1  0  0  0  0
 12 13  2  0  0  0  0
 12 14  1  0  0  0  0
 13 16  1  0  0  0  0
 14 15  2  0  0  0  0
 14 17  1  0  0  0  0
 15 16  1  0  0  0  0
 15 20  1  0  0  0  0
 16 28  1  0  0  0  0
 17 18  2  0  0  0  0
 17 29  1  0  0  0  0
 18 19  1  0  0  0  0
 18 21  1  0  0  0  0
 19 20  2  0  0  0  0
 19 30  1  0  0  0  0
 20 31  1  0  0  0  0
M  END
