9-10
 OpenBabel04201808233D
Structure written by MMmdl.
 32 36  0  0  0  0  0  0  0  0999 V2000
   -0.7128   -0.7618    0.9612 C   0  0  0  0  0  0  0  0  0  0  0  0
   -2.0411   -0.3674    1.2895 C   0  0  0  0  0  0  0  0  0  0  0  0
   -2.6557   -1.5492    1.7347 C   0  0  0  0  0  0  0  0  0  0  0  0
   -1.7251   -2.5771    1.6666 N   0  0  0  0  0  0  0  0  0  0  0  0
   -0.5274   -2.1071    1.1931 C   0  0  0  0  0  0  0  0  0  0  0  0
   -2.8061    0.8173    1.2726 C   0  0  0  0  0  0  0  0  0  0  0  0
   -4.1418    0.7841    1.6949 C   0  0  0  0  0  0  0  0  0  0  0  0
   -4.7229   -0.4030    2.1306 C   0  0  0  0  0  0  0  0  0  0  0  0
   -3.9906   -1.5919    2.1586 C   0  0  0  0  0  0  0  0  0  0  0  0
    0.7055   -2.6990    0.9370 C   0  0  0  0  0  0  0  0  0  0  0  0
    1.7472   -1.9589    0.4535 N   0  0  0  0  0  0  0  0  0  0  0  0
    1.5412   -0.6310    0.2315 C   0  0  0  0  0  0  0  0  0  0  0  0
    0.3300   -0.0324    0.4796 C   0  0  0  0  0  0  0  0  0  0  0  0
    2.3977    0.3956   -0.2566 C   0  0  0  0  0  0  0  0  0  0  0  0
    1.6441    1.5810   -0.2775 C   0  0  0  0  0  0  0  0  0  0  0  0
    0.3711    1.2765    0.1846 N   0  0  0  0  0  0  0  0  0  0  0  0
    3.7406    0.4399   -0.6844 C   0  0  0  0  0  0  0  0  0  0  0  0
    4.2722    1.6571   -1.1125 C   0  0  0  0  0  0  0  0  0  0  0  0
    3.5109    2.8210   -1.1264 C   0  0  0  0  0  0  0  0  0  0  0  0
    2.1762    2.8034   -0.7069 C   0  0  0  0  0  0  0  0  0  0  0  0
    5.5759    1.6670   -1.5206 O   0  0  0  0  0  0  0  0  0  0  0  0
   -1.9107   -3.5371    1.9306 H   0  0  0  0  0  0  0  0  0  0  0  0
   -2.3866    1.7618    0.9392 H   0  0  0  0  0  0  0  0  0  0  0  0
   -4.7311    1.7002    1.6811 H   0  0  0  0  0  0  0  0  0  0  0  0
   -5.7632   -0.4065    2.4545 H   0  0  0  0  0  0  0  0  0  0  0  0
   -4.4471   -2.5182    2.4996 H   0  0  0  0  0  0  0  0  0  0  0  0
    0.8930   -3.7551    1.1060 H   0  0  0  0  0  0  0  0  0  0  0  0
   -0.3762    1.9525    0.2714 H   0  0  0  0  0  0  0  0  0  0  0  0
    4.3481   -0.4611   -0.6794 H   0  0  0  0  0  0  0  0  0  0  0  0
    3.9400    3.7630   -1.4632 H   0  0  0  0  0  0  0  0  0  0  0  0
    1.5775    3.7111   -0.7162 H   0  0  0  0  0  0  0  0  0  0  0  0
    5.8095    2.5813   -1.7900 H   0  0  0  0  0  0  0  0  0  0  0  0
  1  2  1  0  0  0  0
  1  5  2  0  0  0  0
  1 13  1  0  0  0  0
  2  3  2  0  0  0  0
  2  6  1  0  0  0  0
  3  4  1  0  0  0  0
  3  9  1  0  0  0  0
  4  5  1  0  0  0  0
  4 22  1  0  0  0  0
  5 10  1  0  0  0  0
  6  7  2  0  0  0  0
  6 23  1  0  0  0  0
  7  8  1  0  0  0  0
  7 24  1  0  0  0  0
  8  9  2  0  0  0  0
  8 25  1  0  0  0  0
  9 26  1  0  0  0  0
 10 11  2  0  0  0  0
 10 27  1  0  0  0  0
 11 12  1  0  0  0  0
 12 13  2  0  0  0  0
 12 14  1  0  0  0  0
 13 16  1  0  0  0  0
 14 15  2  0  0  0  0
 14 17  1  0  0  0  0
 15 16  1  0  0  0  0
 15 20  1  0  0  0  0
 16 28  1  0  0  0  0
 17 18  2  0  0  0  0
 17 29  1  0  0  0  0
 18 19  1  0  0  0  0
 18 21  1  0  0  0  0
 19 20  2  0  0  0  0
 19 30  1  0  0  0  0
 20 31  1  0  0  0  0
 21 32  1  0  0  0  0
M  END
