9-12
 OpenBabel04201808233D
Structure written by MMmdl.
 31 35  0  0  0  0  0  0  0  0999 V2000
   -0.2617   -1.0280    0.8948 C   0  0  0  0  0  0  0  0  0  0  0  0
   -1.5921   -0.6439    1.2260 C   0  0  0  0  0  0  0  0  0  0  0  0
   -2.2001   -1.8334    1.6599 C   0  0  0  0  0  0  0  0  0  0  0  0
   -1.2638   -2.8554    1.5825 N   0  0  0  0  0  0  0  0  0  0  0  0
   -0.0685   -2.3742    1.1139 C   0  0  0  0  0  0  0  0  0  0  0  0
   -2.3636    0.5366    1.2198 C   0  0  0  0  0  0  0  0  0  0  0  0
   -3.6993    0.4919    1.6412 C   0  0  0  0  0  0  0  0  0  0  0  0
   -4.2738   -0.7025    2.0656 C   0  0  0  0  0  0  0  0  0  0  0  0
   -3.5349   -1.8875    2.0830 C   0  0  0  0  0  0  0  0  0  0  0  0
    1.1680   -2.9564    0.8526 C   0  0  0  0  0  0  0  0  0  0  0  0
    2.2055   -2.2053    0.3767 N   0  0  0  0  0  0  0  0  0  0  0  0
    1.9916   -0.8767    0.1676 C   0  0  0  0  0  0  0  0  0  0  0  0
    0.7770   -0.2882    0.4208 C   0  0  0  0  0  0  0  0  0  0  0  0
    2.8419    0.1600   -0.3101 C   0  0  0  0  0  0  0  0  0  0  0  0
    2.0815    1.3423   -0.3203 C   0  0  0  0  0  0  0  0  0  0  0  0
    0.8106    1.0230    0.1387 N   0  0  0  0  0  0  0  0  0  0  0  0
    4.1855    0.2158   -0.7368 C   0  0  0  0  0  0  0  0  0  0  0  0
    4.7267    1.4365   -1.1573 C   0  0  0  0  0  0  0  0  0  0  0  0
    3.9517    2.5952   -1.1581 C   0  0  0  0  0  0  0  0  0  0  0  0
    2.6187    2.5653   -0.7400 C   0  0  0  0  0  0  0  0  0  0  0  0
    1.6751    4.0016   -0.7465 Cl  0  0  0  0  0  0  0  0  0  0  0  0
   -1.4440   -3.8188    1.8376 H   0  0  0  0  0  0  0  0  0  0  0  0
   -1.9496    1.4866    0.8955 H   0  0  0  0  0  0  0  0  0  0  0  0
   -4.2938    1.4047    1.6357 H   0  0  0  0  0  0  0  0  0  0  0  0
   -5.3141   -0.7149    2.3891 H   0  0  0  0  0  0  0  0  0  0  0  0
   -3.9863   -2.8195    2.4151 H   0  0  0  0  0  0  0  0  0  0  0  0
    1.3617   -4.0129    1.0115 H   0  0  0  0  0  0  0  0  0  0  0  0
    0.0606    1.6951    0.2311 H   0  0  0  0  0  0  0  0  0  0  0  0
    4.7976   -0.6840   -0.7393 H   0  0  0  0  0  0  0  0  0  0  0  0
    5.7640    1.4796   -1.4867 H   0  0  0  0  0  0  0  0  0  0  0  0
    4.3974    3.5313   -1.4900 H   0  0  0  0  0  0  0  0  0  0  0  0
  1  2  1  0  0  0  0
  1  5  2  0  0  0  0
  1 13  1  0  0  0  0
  2  3  2  0  0  0  0
  2  6  1  0  0  0  0
  3  4  1  0  0  0  0
  3  9  1  0  0  0  0
  4  5  1  0  0  0  0
  4 22  1  0  0  0  0
  5 10  1  0  0  0  0
  6  7  2  0  0  0  0
  6 23  1  0  0  0  0
  7  8  1  0  0  0  0
  7 24  1  0  0  0  0
  8  9  2  0  0  0  0
  8 25  1  0  0  0  0
  9 26  1  0  0  0  0
 10 11  2  0  0  0  0
 10 27  1  0  0  0  0
 11 12  1  0  0  0  0
 12 13  2  0  0  0  0
 12 14  1  0  0  0  0
 13 16  1  0  0  0  0
 14 15  2  0  0  0  0
 14 17  1  0  0  0  0
 15 16  1  0  0  0  0
 15 20  1  0  0  0  0
 16 28  1  0  0  0  0
 17 18  2  0  0  0  0
 17 29  1  0  0  0  0
 18 19  1  0  0  0  0
 18 30  1  0  0  0  0
 19 20  2  0  0  0  0
 19 31  1  0  0  0  0
 20 21  1  0  0  0  0
M  END
