Ro05-3343
 OpenBabel04201808233D
Structure written by MMmdl.
 41 43  0  0  0  0  0  0  0  0999 V2000
   -2.0998    2.4918   -0.2252 C   0  0  0  0  0  0  0  0  0  0  0  0
   -2.3357    1.1230   -0.0659 C   0  0  0  0  0  0  0  0  0  0  0  0
   -1.2622    0.2591    0.1458 C   0  0  0  0  0  0  0  0  0  0  0  0
    0.0557    0.7572    0.2007 C   0  0  0  0  0  0  0  0  0  0  0  0
    0.2836    2.1412    0.1132 C   0  0  0  0  0  0  0  0  0  0  0  0
   -0.7988    2.9940   -0.1400 C   0  0  0  0  0  0  0  0  0  0  0  0
    1.1770   -0.2398    0.2204 C   0  0  0  0  0  0  0  0  0  0  0  0
    2.2602   -0.1393    0.9201 N   0  0  0  0  0  0  0  0  0  0  0  0
    2.4203    1.0338    1.7777 C   0  0  0  0  0  0  0  0  0  0  0  0
    2.6282    2.2775    0.9274 C   0  0  0  0  0  0  0  0  0  0  0  0
    1.5392    2.7583    0.2476 N   0  0  0  0  0  0  0  0  0  0  0  0
    1.0514   -1.4528   -0.6501 C   0  0  0  0  0  0  0  0  0  0  0  0
    3.7054    2.8819    0.8966 O   0  0  0  0  0  0  0  0  0  0  0  0
    0.5277   -1.3568   -1.9458 C   0  0  0  0  0  0  0  0  0  0  0  0
    0.4079   -2.5030   -2.7338 C   0  0  0  0  0  0  0  0  0  0  0  0
    0.8172   -3.7402   -2.2354 C   0  0  0  0  0  0  0  0  0  0  0  0
    1.3542   -3.8351   -0.9513 C   0  0  0  0  0  0  0  0  0  0  0  0
    1.4771   -2.6924   -0.1590 C   0  0  0  0  0  0  0  0  0  0  0  0
   -4.0217    0.5724   -0.1985 S   0  0  0  0  0  0  0  0  0  0  0  0
   -4.4582    0.8720   -1.5534 O   0  0  0  0  0  0  0  0  0  0  0  0
   -4.7442    1.1415    0.9280 O   0  0  0  0  0  0  0  0  0  0  0  0
   -4.0645   -1.1111   -0.0269 N   0  0  0  0  0  0  0  0  0  0  0  0
   -4.2251   -1.9432   -1.2356 C   0  0  0  0  0  0  0  0  0  0  0  0
   -4.6587   -1.6956    1.1934 C   0  0  0  0  0  0  0  0  0  0  0  0
   -2.9251    3.1787   -0.4075 H   0  0  0  0  0  0  0  0  0  0  0  0
   -1.4234   -0.8065    0.2486 H   0  0  0  0  0  0  0  0  0  0  0  0
   -0.6473    4.0678   -0.2428 H   0  0  0  0  0  0  0  0  0  0  0  0
    3.3132    0.8926    2.3965 H   0  0  0  0  0  0  0  0  0  0  0  0
    1.5781    1.1668    2.4664 H   0  0  0  0  0  0  0  0  0  0  0  0
    1.6482    3.6994   -0.1207 H   0  0  0  0  0  0  0  0  0  0  0  0
    0.2188   -0.3984   -2.3574 H   0  0  0  0  0  0  0  0  0  0  0  0
   -0.0010   -2.4308   -3.7402 H   0  0  0  0  0  0  0  0  0  0  0  0
    0.7233   -4.6325   -2.8524 H   0  0  0  0  0  0  0  0  0  0  0  0
    1.6784   -4.8006   -0.5671 H   0  0  0  0  0  0  0  0  0  0  0  0
    1.8949   -2.7758    0.8422 H   0  0  0  0  0  0  0  0  0  0  0  0
   -4.0217   -2.9918   -0.9936 H   0  0  0  0  0  0  0  0  0  0  0  0
   -3.5035   -1.6501   -2.0032 H   0  0  0  0  0  0  0  0  0  0  0  0
   -5.2351   -1.8734   -1.6438 H   0  0  0  0  0  0  0  0  0  0  0  0
   -3.9387   -2.3878    1.6405 H   0  0  0  0  0  0  0  0  0  0  0  0
   -5.5767   -2.2451    0.9656 H   0  0  0  0  0  0  0  0  0  0  0  0
   -4.8950   -0.9330    1.9402 H   0  0  0  0  0  0  0  0  0  0  0  0
  1  2  2  0  0  0  0
  1  6  1  0  0  0  0
  1 25  1  0  0  0  0
  2  3  1  0  0  0  0
  2 19  1  0  0  0  0
  3  4  2  0  0  0  0
  3 26  1  0  0  0  0
  4  5  1  0  0  0  0
  4  7  1  0  0  0  0
  5  6  2  0  0  0  0
  5 11  1  0  0  0  0
  6 27  1  0  0  0  0
  7  8  2  0  0  0  0
  7 12  1  0  0  0  0
  8  9  1  0  0  0  0
  9 10  1  0  0  0  0
  9 28  1  0  0  0  0
  9 29  1  0  0  0  0
 10 11  1  0  0  0  0
 10 13  2  0  0  0  0
 11 30  1  0  0  0  0
 12 14  2  0  0  0  0
 12 18  1  0  0  0  0
 14 15  1  0  0  0  0
 14 31  1  0  0  0  0
 15 16  2  0  0  0  0
 15 32  1  0  0  0  0
 16 17  1  0  0  0  0
 16 33  1  0  0  0  0
 17 18  2  0  0  0  0
 17 34  1  0  0  0  0
 18 35  1  0  0  0  0
 19 20  2  0  0  0  0
 19 21  2  0  0  0  0
 19 22  1  0  0  0  0
 22 23  1  0  0  0  0
 22 24  1  0  0  0  0
 23 36  1  0  0  0  0
 23 37  1  0  0  0  0
 23 38  1  0  0  0  0
 24 39  1  0  0  0  0
 24 40  1  0  0  0  0
 24 41  1  0  0  0  0
M  END
