9-13
 OpenBabel04201808233D
Structure written by MMmdl.
 31 35  0  0  0  0  0  0  0  0999 V2000
   -0.2618   -1.1009    0.8946 C   0  0  0  0  0  0  0  0  0  0  0  0
   -1.5919   -0.7165    1.2270 C   0  0  0  0  0  0  0  0  0  0  0  0
   -2.2004   -1.9063    1.6591 C   0  0  0  0  0  0  0  0  0  0  0  0
   -1.2648   -2.9288    1.5795 N   0  0  0  0  0  0  0  0  0  0  0  0
   -0.0695   -2.4476    1.1112 C   0  0  0  0  0  0  0  0  0  0  0  0
   -2.3626    0.4645    1.2231 C   0  0  0  0  0  0  0  0  0  0  0  0
   -3.6981    0.4199    1.6450 C   0  0  0  0  0  0  0  0  0  0  0  0
   -4.2732   -0.7748    2.0678 C   0  0  0  0  0  0  0  0  0  0  0  0
   -3.5350   -1.9603    2.0827 C   0  0  0  0  0  0  0  0  0  0  0  0
    1.1665   -3.0302    0.8484 C   0  0  0  0  0  0  0  0  0  0  0  0
    2.2043   -2.2790    0.3733 N   0  0  0  0  0  0  0  0  0  0  0  0
    1.9912   -0.9498    0.1667 C   0  0  0  0  0  0  0  0  0  0  0  0
    0.7773   -0.3610    0.4215 C   0  0  0  0  0  0  0  0  0  0  0  0
    2.8418    0.0875   -0.3094 C   0  0  0  0  0  0  0  0  0  0  0  0
    2.0827    1.2710   -0.3173 C   0  0  0  0  0  0  0  0  0  0  0  0
    0.8118    0.9506    0.1419 N   0  0  0  0  0  0  0  0  0  0  0  0
    4.1852    0.1418   -0.7365 C   0  0  0  0  0  0  0  0  0  0  0  0
    4.7278    1.3622   -1.1550 C   0  0  0  0  0  0  0  0  0  0  0  0
    3.9551    2.5223   -1.1539 C   0  0  0  0  0  0  0  0  0  0  0  0
    2.6215    2.4945   -0.7353 C   0  0  0  0  0  0  0  0  0  0  0  0
    1.5948    4.0797   -0.7429 Br  0  0  0  0  0  0  0  0  0  0  0  0
   -1.4457   -3.8926    1.8329 H   0  0  0  0  0  0  0  0  0  0  0  0
   -1.9483    1.4148    0.9002 H   0  0  0  0  0  0  0  0  0  0  0  0
   -4.2921    1.3331    1.6414 H   0  0  0  0  0  0  0  0  0  0  0  0
   -5.3134   -0.7871    2.3917 H   0  0  0  0  0  0  0  0  0  0  0  0
   -3.9869   -2.8926    2.4135 H   0  0  0  0  0  0  0  0  0  0  0  0
    1.3596   -4.0871    1.0052 H   0  0  0  0  0  0  0  0  0  0  0  0
    0.0617    1.6221    0.2363 H   0  0  0  0  0  0  0  0  0  0  0  0
    4.7959   -0.7588   -0.7407 H   0  0  0  0  0  0  0  0  0  0  0  0
    5.7650    1.4040   -1.4847 H   0  0  0  0  0  0  0  0  0  0  0  0
    4.4060    3.4564   -1.4852 H   0  0  0  0  0  0  0  0  0  0  0  0
  1  2  1  0  0  0  0
  1  5  2  0  0  0  0
  1 13  1  0  0  0  0
  2  3  2  0  0  0  0
  2  6  1  0  0  0  0
  3  4  1  0  0  0  0
  3  9  1  0  0  0  0
  4  5  1  0  0  0  0
  4 22  1  0  0  0  0
  5 10  1  0  0  0  0
  6  7  2  0  0  0  0
  6 23  1  0  0  0  0
  7  8  1  0  0  0  0
  7 24  1  0  0  0  0
  8  9  2  0  0  0  0
  8 25  1  0  0  0  0
  9 26  1  0  0  0  0
 10 11  2  0  0  0  0
 10 27  1  0  0  0  0
 11 12  1  0  0  0  0
 12 13  2  0  0  0  0
 12 14  1  0  0  0  0
 13 16  1  0  0  0  0
 14 15  2  0  0  0  0
 14 17  1  0  0  0  0
 15 16  1  0  0  0  0
 15 20  1  0  0  0  0
 16 28  1  0  0  0  0
 17 18  2  0  0  0  0
 17 29  1  0  0  0  0
 18 19  1  0  0  0  0
 18 30  1  0  0  0  0
 19 20  2  0  0  0  0
 19 31  1  0  0  0  0
 20 21  1  0  0  0  0
M  END
