9-17a
 OpenBabel04201808233D
Structure written by MMmdl.
 31 35  0  0  0  0  0  0  0  0999 V2000
   -0.2609   -0.9702    0.8953 C   0  0  0  0  0  0  0  0  0  0  0  0
   -1.5929   -0.5869    1.2216 C   0  0  0  0  0  0  0  0  0  0  0  0
   -2.1977   -1.7735    1.6675 C   0  0  0  0  0  0  0  0  0  0  0  0
   -1.2583   -2.7935    1.6012 N   0  0  0  0  0  0  0  0  0  0  0  0
   -0.0641   -2.3136    1.1285 C   0  0  0  0  0  0  0  0  0  0  0  0
   -2.3681    0.5911    1.2027 C   0  0  0  0  0  0  0  0  0  0  0  0
   -3.7038    0.5469    1.6238 C   0  0  0  0  0  0  0  0  0  0  0  0
   -4.2750   -0.6447    2.0604 C   0  0  0  0  0  0  0  0  0  0  0  0
   -3.5325   -1.8272    2.0904 C   0  0  0  0  0  0  0  0  0  0  0  0
    1.1741   -2.8952    0.8745 C   0  0  0  0  0  0  0  0  0  0  0  0
    2.2101   -2.1465    0.3918 N   0  0  0  0  0  0  0  0  0  0  0  0
    1.9929   -0.8205    0.1688 C   0  0  0  0  0  0  0  0  0  0  0  0
    0.7763   -0.2322    0.4146 C   0  0  0  0  0  0  0  0  0  0  0  0
    2.8413    0.2136   -0.3183 C   0  0  0  0  0  0  0  0  0  0  0  0
    2.0777    1.3923   -0.3410 C   0  0  0  0  0  0  0  0  0  0  0  0
    0.8066    1.0769    0.1191 N   0  0  0  0  0  0  0  0  0  0  0  0
    4.1847    0.2703   -0.7440 C   0  0  0  0  0  0  0  0  0  0  0  0
    4.7203    1.4906   -1.1754 C   0  0  0  0  0  0  0  0  0  0  0  0
    3.9350    2.6414   -1.1853 C   0  0  0  0  0  0  0  0  0  0  0  0
    2.5997    2.6205   -0.7700 C   0  0  0  0  0  0  0  0  0  0  0  0
    4.6909    4.2752   -1.7748 Br  0  0  0  0  0  0  0  0  0  0  0  0
   -1.4358   -3.7547    1.8661 H   0  0  0  0  0  0  0  0  0  0  0  0
   -1.9565    1.5388    0.8686 H   0  0  0  0  0  0  0  0  0  0  0  0
   -4.3010    1.4578    1.6084 H   0  0  0  0  0  0  0  0  0  0  0  0
   -5.3155   -0.6568    2.3835 H   0  0  0  0  0  0  0  0  0  0  0  0
   -3.9813   -2.7571    2.4320 H   0  0  0  0  0  0  0  0  0  0  0  0
    1.3705   -3.9494    1.0447 H   0  0  0  0  0  0  0  0  0  0  0  0
    0.0531    1.7461    0.2049 H   0  0  0  0  0  0  0  0  0  0  0  0
    4.8008   -0.6263   -0.7376 H   0  0  0  0  0  0  0  0  0  0  0  0
    5.7580    1.5244   -1.5020 H   0  0  0  0  0  0  0  0  0  0  0  0
    1.9863    3.5172   -0.7773 H   0  0  0  0  0  0  0  0  0  0  0  0
  1  2  1  0  0  0  0
  1  5  2  0  0  0  0
  1 13  1  0  0  0  0
  2  3  2  0  0  0  0
  2  6  1  0  0  0  0
  3  4  1  0  0  0  0
  3  9  1  0  0  0  0
  4  5  1  0  0  0  0
  4 22  1  0  0  0  0
  5 10  1  0  0  0  0
  6  7  2  0  0  0  0
  6 23  1  0  0  0  0
  7  8  1  0  0  0  0
  7 24  1  0  0  0  0
  8  9  2  0  0  0  0
  8 25  1  0  0  0  0
  9 26  1  0  0  0  0
 10 11  2  0  0  0  0
 10 27  1  0  0  0  0
 11 12  1  0  0  0  0
 12 13  2  0  0  0  0
 12 14  1  0  0  0  0
 13 16  1  0  0  0  0
 14 15  2  0  0  0  0
 14 17  1  0  0  0  0
 15 16  1  0  0  0  0
 15 20  1  0  0  0  0
 16 28  1  0  0  0  0
 17 18  2  0  0  0  0
 17 29  1  0  0  0  0
 18 19  1  0  0  0  0
 18 30  1  0  0  0  0
 19 20  2  0  0  0  0
 19 21  1  0  0  0  0
 20 31  1  0  0  0  0
M  END
