9-21a
 OpenBabel04201808233D
Structure written by MMmdl.
 32 36  0  0  0  0  0  0  0  0999 V2000
   -0.2567   -0.9617    1.0725 C   0  0  0  0  0  0  0  0  0  0  0  0
   -1.5895   -0.5759    1.3926 C   0  0  0  0  0  0  0  0  0  0  0  0
   -2.1886   -1.7537    1.8686 C   0  0  0  0  0  0  0  0  0  0  0  0
   -1.2452   -2.7712    1.8252 N   0  0  0  0  0  0  0  0  0  0  0  0
   -0.0540   -2.2982    1.3382 C   0  0  0  0  0  0  0  0  0  0  0  0
   -2.3695    0.5983    1.3469 C   0  0  0  0  0  0  0  0  0  0  0  0
   -3.7041    0.5590    1.7719 C   0  0  0  0  0  0  0  0  0  0  0  0
   -4.2696   -0.6239    2.2386 C   0  0  0  0  0  0  0  0  0  0  0  0
   -3.5223   -1.8023    2.2957 C   0  0  0  0  0  0  0  0  0  0  0  0
    1.1859   -2.8809    1.0954 C   0  0  0  0  0  0  0  0  0  0  0  0
    2.2178   -2.1401    0.5920 N   0  0  0  0  0  0  0  0  0  0  0  0
    1.9947   -0.8209    0.3368 C   0  0  0  0  0  0  0  0  0  0  0  0
    0.7763   -0.2316    0.5712 C   0  0  0  0  0  0  0  0  0  0  0  0
    2.8377    0.2042   -0.1780 C   0  0  0  0  0  0  0  0  0  0  0  0
    2.0692    1.3794   -0.2280 C   0  0  0  0  0  0  0  0  0  0  0  0
    0.8005    1.0699    0.2433 N   0  0  0  0  0  0  0  0  0  0  0  0
    4.1800    0.2556   -0.6086 C   0  0  0  0  0  0  0  0  0  0  0  0
    4.7077    1.4671   -1.0712 C   0  0  0  0  0  0  0  0  0  0  0  0
    3.9165    2.6096   -1.1061 C   0  0  0  0  0  0  0  0  0  0  0  0
    2.5843    2.5994   -0.6888 C   0  0  0  0  0  0  0  0  0  0  0  0
    4.4906    3.7605   -1.5683 O   0  0  0  0  0  0  0  0  0  0  0  0
   -1.4183   -3.7263    2.1140 H   0  0  0  0  0  0  0  0  0  0  0  0
   -1.9624    1.5392    0.9890 H   0  0  0  0  0  0  0  0  0  0  0  0
   -4.3050    1.4670    1.7358 H   0  0  0  0  0  0  0  0  0  0  0  0
   -5.3093   -0.6323    2.5642 H   0  0  0  0  0  0  0  0  0  0  0  0
   -3.9666   -2.7254    2.6609 H   0  0  0  0  0  0  0  0  0  0  0  0
    1.3869   -3.9299    1.2908 H   0  0  0  0  0  0  0  0  0  0  0  0
    0.0444    1.7378    0.3143 H   0  0  0  0  0  0  0  0  0  0  0  0
    4.8003   -0.6376   -0.5819 H   0  0  0  0  0  0  0  0  0  0  0  0
    5.7430    1.5079   -1.4038 H   0  0  0  0  0  0  0  0  0  0  0  0
    1.9656    3.4917   -0.7159 H   0  0  0  0  0  0  0  0  0  0  0  0
    3.8195    4.4756   -1.5349 H   0  0  0  0  0  0  0  0  0  0  0  0
  1  2  1  0  0  0  0
  1  5  2  0  0  0  0
  1 13  1  0  0  0  0
  2  3  2  0  0  0  0
  2  6  1  0  0  0  0
  3  4  1  0  0  0  0
  3  9  1  0  0  0  0
  4  5  1  0  0  0  0
  4 22  1  0  0  0  0
  5 10  1  0  0  0  0
  6  7  2  0  0  0  0
  6 23  1  0  0  0  0
  7  8  1  0  0  0  0
  7 24  1  0  0  0  0
  8  9  2  0  0  0  0
  8 25  1  0  0  0  0
  9 26  1  0  0  0  0
 10 11  2  0  0  0  0
 10 27  1  0  0  0  0
 11 12  1  0  0  0  0
 12 13  2  0  0  0  0
 12 14  1  0  0  0  0
 13 16  1  0  0  0  0
 14 15  2  0  0  0  0
 14 17  1  0  0  0  0
 15 16  1  0  0  0  0
 15 20  1  0  0  0  0
 16 28  1  0  0  0  0
 17 18  2  0  0  0  0
 17 29  1  0  0  0  0
 18 19  1  0  0  0  0
 18 30  1  0  0  0  0
 19 20  2  0  0  0  0
 19 21  1  0  0  0  0
 20 31  1  0  0  0  0
 21 32  1  0  0  0  0
M  END
