9-20b
 OpenBabel04201808233D
Structure written by MMmdl.
 45 50  0  0  0  0  0  0  0  0999 V2000
   -0.9520    0.2796    2.5081 C   0  0  0  0  0  0  0  0  0  0  0  0
   -2.1997    0.7090    3.0442 C   0  0  0  0  0  0  0  0  0  0  0  0
   -2.8264   -0.4766    3.4616 C   0  0  0  0  0  0  0  0  0  0  0  0
   -1.9797   -1.5399    3.1799 N   0  0  0  0  0  0  0  0  0  0  0  0
   -0.8252   -1.0893    2.5941 C   0  0  0  0  0  0  0  0  0  0  0  0
   -2.8839    1.9277    3.2340 C   0  0  0  0  0  0  0  0  0  0  0  0
   -4.1538    1.9232    3.8265 C   0  0  0  0  0  0  0  0  0  0  0  0
   -4.7485    0.7314    4.2299 C   0  0  0  0  0  0  0  0  0  0  0  0
   -4.0960   -0.4908    4.0545 C   0  0  0  0  0  0  0  0  0  0  0  0
    0.3240   -1.7165    2.1249 C   0  0  0  0  0  0  0  0  0  0  0  0
    1.3387   -0.9884    1.5733 N   0  0  0  0  0  0  0  0  0  0  0  0
    1.1952    0.3644    1.4973 C   0  0  0  0  0  0  0  0  0  0  0  0
    0.0654    0.9965    1.9576 C   0  0  0  0  0  0  0  0  0  0  0  0
    2.0441    1.3893    0.9862 C   0  0  0  0  0  0  0  0  0  0  0  0
    1.3693    2.6078    1.1820 C   0  0  0  0  0  0  0  0  0  0  0  0
    0.1492    2.3234    1.7781 N   0  0  0  0  0  0  0  0  0  0  0  0
    3.3183    1.4296    0.3769 C   0  0  0  0  0  0  0  0  0  0  0  0
    3.8910    2.6585    0.0284 C   0  0  0  0  0  0  0  0  0  0  0  0
    3.1929    3.8457    0.2366 C   0  0  0  0  0  0  0  0  0  0  0  0
    1.9181    3.8427    0.8113 C   0  0  0  0  0  0  0  0  0  0  0  0
    4.0745    0.2925    0.1771 O   0  0  0  0  0  0  0  0  0  0  0  0
    3.6687   -0.3505   -1.0401 C   0  0  0  0  0  0  0  0  0  0  0  0
    4.5404   -1.5675   -1.2354 C   0  0  0  0  0  0  0  0  0  0  0  0
    4.2335   -2.7697   -0.5813 C   0  0  0  0  0  0  0  0  0  0  0  0
    5.0437   -3.8939   -0.7491 C   0  0  0  0  0  0  0  0  0  0  0  0
    6.1711   -3.8257   -1.5659 C   0  0  0  0  0  0  0  0  0  0  0  0
    6.4919   -2.6329   -2.2120 C   0  0  0  0  0  0  0  0  0  0  0  0
    5.6830   -1.5071   -2.0455 C   0  0  0  0  0  0  0  0  0  0  0  0
   -2.1906   -2.5098    3.3811 H   0  0  0  0  0  0  0  0  0  0  0  0
   -2.4517    2.8770    2.9323 H   0  0  0  0  0  0  0  0  0  0  0  0
   -4.6804    2.8656    3.9725 H   0  0  0  0  0  0  0  0  0  0  0  0
   -5.7365    0.7506    4.6887 H   0  0  0  0  0  0  0  0  0  0  0  0
   -4.5631   -1.4208    4.3702 H   0  0  0  0  0  0  0  0  0  0  0  0
    0.4648   -2.7919    2.1740 H   0  0  0  0  0  0  0  0  0  0  0  0
   -0.5358    3.0246    2.0277 H   0  0  0  0  0  0  0  0  0  0  0  0
    4.8855    2.6895   -0.4128 H   0  0  0  0  0  0  0  0  0  0  0  0
    3.6479    4.7937   -0.0493 H   0  0  0  0  0  0  0  0  0  0  0  0
    1.3793    4.7736    0.9730 H   0  0  0  0  0  0  0  0  0  0  0  0
    3.7861    0.3319   -1.8924 H   0  0  0  0  0  0  0  0  0  0  0  0
    2.6171   -0.6604   -0.9953 H   0  0  0  0  0  0  0  0  0  0  0  0
    3.3587   -2.8328    0.0657 H   0  0  0  0  0  0  0  0  0  0  0  0
    4.7959   -4.8235   -0.2396 H   0  0  0  0  0  0  0  0  0  0  0  0
    6.8030   -4.7025   -1.6961 H   0  0  0  0  0  0  0  0  0  0  0  0
    7.3756   -2.5783   -2.8458 H   0  0  0  0  0  0  0  0  0  0  0  0
    5.9508   -0.5809   -2.5528 H   0  0  0  0  0  0  0  0  0  0  0  0
  1  2  1  0  0  0  0
  1  5  2  0  0  0  0
  1 13  1  0  0  0  0
  2  3  2  0  0  0  0
  2  6  1  0  0  0  0
  3  4  1  0  0  0  0
  3  9  1  0  0  0  0
  4  5  1  0  0  0  0
  4 29  1  0  0  0  0
  5 10  1  0  0  0  0
  6  7  2  0  0  0  0
  6 30  1  0  0  0  0
  7  8  1  0  0  0  0
  7 31  1  0  0  0  0
  8  9  2  0  0  0  0
  8 32  1  0  0  0  0
  9 33  1  0  0  0  0
 10 11  2  0  0  0  0
 10 34  1  0  0  0  0
 11 12  1  0  0  0  0
 12 13  2  0  0  0  0
 12 14  1  0  0  0  0
 13 16  1  0  0  0  0
 14 15  2  0  0  0  0
 14 17  1  0  0  0  0
 15 16  1  0  0  0  0
 15 20  1  0  0  0  0
 16 35  1  0  0  0  0
 17 18  2  0  0  0  0
 17 21  1  0  0  0  0
 18 19  1  0  0  0  0
 18 36  1  0  0  0  0
 19 20  2  0  0  0  0
 19 37  1  0  0  0  0
 20 38  1  0  0  0  0
 21 22  1  0  0  0  0
 22 23  1  0  0  0  0
 22 39  1  0  0  0  0
 22 40  1  0  0  0  0
 23 24  2  0  0  0  0
 23 28  1  0  0  0  0
 24 25  1  0  0  0  0
 24 41  1  0  0  0  0
 25 26  2  0  0  0  0
 25 42  1  0  0  0  0
 26 27  1  0  0  0  0
 26 43  1  0  0  0  0
 27 28  2  0  0  0  0
 27 44  1  0  0  0  0
 28 45  1  0  0  0  0
M  END
