9-24
 OpenBabel04201808233D
Structure written by MMmdl.
 33 37  0  0  0  0  0  0  0  0999 V2000
   -0.5178   -0.7274    1.0447 C   0  0  0  0  0  0  0  0  0  0  0  0
   -1.8434   -0.3305    1.3850 C   0  0  0  0  0  0  0  0  0  0  0  0
   -2.4602   -1.5146    1.8215 C   0  0  0  0  0  0  0  0  0  0  0  0
   -1.5339   -2.5454    1.7372 N   0  0  0  0  0  0  0  0  0  0  0  0
   -0.3375   -2.0758    1.2616 C   0  0  0  0  0  0  0  0  0  0  0  0
   -2.6008    0.8608    1.3830 C   0  0  0  0  0  0  0  0  0  0  0  0
   -3.9399    0.8190    1.8163 C   0  0  0  0  0  0  0  0  0  0  0  0
   -4.5278   -0.3749    2.2456 C   0  0  0  0  0  0  0  0  0  0  0  0
   -3.7922   -1.5632    2.2540 C   0  0  0  0  0  0  0  0  0  0  0  0
    0.8905   -2.6720    0.9926 C   0  0  0  0  0  0  0  0  0  0  0  0
    1.9333   -1.9329    0.5110 N   0  0  0  0  0  0  0  0  0  0  0  0
    1.7331   -0.6020    0.3040 C   0  0  0  0  0  0  0  0  0  0  0  0
    0.5266    0.0014    0.5647 C   0  0  0  0  0  0  0  0  0  0  0  0
    2.5942    0.4231   -0.1780 C   0  0  0  0  0  0  0  0  0  0  0  0
    1.8491    1.6134   -0.1831 C   0  0  0  0  0  0  0  0  0  0  0  0
    0.5763    1.3128    0.2824 N   0  0  0  0  0  0  0  0  0  0  0  0
    3.9354    0.4606   -0.6118 C   0  0  0  0  0  0  0  0  0  0  0  0
    4.4777    1.6787   -1.0316 C   0  0  0  0  0  0  0  0  0  0  0  0
    3.7185    2.8471   -1.0278 C   0  0  0  0  0  0  0  0  0  0  0  0
    2.3859    2.8366   -0.6023 C   0  0  0  0  0  0  0  0  0  0  0  0
    6.1165    1.7337   -1.5634 Cl  0  0  0  0  0  0  0  0  0  0  0  0
   -4.7343    2.0560    1.8168 N   0  3  0  0  0  0  0  0  0  0  0  0
   -5.9367    1.9881    2.1364 O   0  0  0  0  0  0  0  0  0  0  0  0
   -4.1719    3.1209    1.4973 O   0  5  0  0  0  0  0  0  0  0  0  0
   -1.7218   -3.5073    1.9925 H   0  0  0  0  0  0  0  0  0  0  0  0
   -2.1600    1.7944    1.0520 H   0  0  0  0  0  0  0  0  0  0  0  0
   -5.5630   -0.4045    2.5810 H   0  0  0  0  0  0  0  0  0  0  0  0
   -4.2452   -2.4942    2.5872 H   0  0  0  0  0  0  0  0  0  0  0  0
    1.0730   -3.7307    1.1498 H   0  0  0  0  0  0  0  0  0  0  0  0
   -0.1642    1.9946    0.3793 H   0  0  0  0  0  0  0  0  0  0  0  0
    4.5307   -0.4484   -0.6163 H   0  0  0  0  0  0  0  0  0  0  0  0
    4.1582    3.7865   -1.3584 H   0  0  0  0  0  0  0  0  0  0  0  0
    1.7939    3.7485   -0.5994 H   0  0  0  0  0  0  0  0  0  0  0  0
  1  2  1  0  0  0  0
  1  5  2  0  0  0  0
  1 13  1  0  0  0  0
  2  3  2  0  0  0  0
  2  6  1  0  0  0  0
  3  4  1  0  0  0  0
  3  9  1  0  0  0  0
  4  5  1  0  0  0  0
  4 25  1  0  0  0  0
  5 10  1  0  0  0  0
  6  7  2  0  0  0  0
  6 26  1  0  0  0  0
  7  8  1  0  0  0  0
  7 22  1  0  0  0  0
  8  9  2  0  0  0  0
  8 27  1  0  0  0  0
  9 28  1  0  0  0  0
 10 11  2  0  0  0  0
 10 29  1  0  0  0  0
 11 12  1  0  0  0  0
 12 13  2  0  0  0  0
 12 14  1  0  0  0  0
 13 16  1  0  0  0  0
 14 15  2  0  0  0  0
 14 17  1  0  0  0  0
 15 16  1  0  0  0  0
 15 20  1  0  0  0  0
 16 30  1  0  0  0  0
 17 18  2  0  0  0  0
 17 31  1  0  0  0  0
 18 19  1  0  0  0  0
 18 21  1  0  0  0  0
 19 20  2  0  0  0  0
 19 32  1  0  0  0  0
 20 33  1  0  0  0  0
 22 23  2  0  0  0  0
 22 24  1  0  0  0  0
M  CHG  2  22   1  24  -1
M  END
