9-28
 OpenBabel04201808233D
Structure written by MMmdl.
 33 37  0  0  0  0  0  0  0  0999 V2000
   -0.2549   -0.8895    0.7841 C   0  0  0  0  0  0  0  0  0  0  0  0
   -1.5827   -0.4975    1.1184 C   0  0  0  0  0  0  0  0  0  0  0  0
   -2.1968   -1.6823    1.5518 C   0  0  0  0  0  0  0  0  0  0  0  0
   -1.2698   -2.7116    1.4686 N   0  0  0  0  0  0  0  0  0  0  0  0
   -0.0719   -2.2381    0.9988 C   0  0  0  0  0  0  0  0  0  0  0  0
   -2.3477    0.6902    1.1210 C   0  0  0  0  0  0  0  0  0  0  0  0
   -3.6917    0.6695    1.5230 C   0  0  0  0  0  0  0  0  0  0  0  0
   -4.2525   -0.5254    1.9727 C   0  0  0  0  0  0  0  0  0  0  0  0
   -3.5260   -1.7218    1.9863 C   0  0  0  0  0  0  0  0  0  0  0  0
    1.1594   -2.8296    0.7342 C   0  0  0  0  0  0  0  0  0  0  0  0
    2.2022   -2.0859    0.2591 N   0  0  0  0  0  0  0  0  0  0  0  0
    1.9988   -0.7550    0.0538 C   0  0  0  0  0  0  0  0  0  0  0  0
    0.7892   -0.1565    0.3103 C   0  0  0  0  0  0  0  0  0  0  0  0
    2.8576    0.2756   -0.4223 C   0  0  0  0  0  0  0  0  0  0  0  0
    2.1069    1.4628   -0.4284 C   0  0  0  0  0  0  0  0  0  0  0  0
    0.8335    1.1557    0.0307 N   0  0  0  0  0  0  0  0  0  0  0  0
    4.2006    0.3228   -0.8507 C   0  0  0  0  0  0  0  0  0  0  0  0
    4.7480    1.5431   -1.2682 C   0  0  0  0  0  0  0  0  0  0  0  0
    3.9762    2.7029   -1.2623 C   0  0  0  0  0  0  0  0  0  0  0  0
    2.6421    2.6901   -0.8438 C   0  0  0  0  0  0  0  0  0  0  0  0
   -4.4187    1.8469    1.5816 N   0  0  0  0  0  0  0  0  0  0  0  0
    4.6795    4.1889   -1.7825 Cl  0  0  0  0  0  0  0  0  0  0  0  0
   -1.4562   -3.6740    1.7232 H   0  0  0  0  0  0  0  0  0  0  0  0
   -1.9059    1.6307    0.8073 H   0  0  0  0  0  0  0  0  0  0  0  0
   -5.2848   -0.5425    2.3215 H   0  0  0  0  0  0  0  0  0  0  0  0
   -3.9842   -2.6459    2.3304 H   0  0  0  0  0  0  0  0  0  0  0  0
    1.3447   -3.8881    0.8901 H   0  0  0  0  0  0  0  0  0  0  0  0
    0.0878    1.8323    0.1258 H   0  0  0  0  0  0  0  0  0  0  0  0
    4.8072   -0.5802   -0.8571 H   0  0  0  0  0  0  0  0  0  0  0  0
    5.7846    1.5730   -1.5976 H   0  0  0  0  0  0  0  0  0  0  0  0
    2.0412    3.5950   -0.8396 H   0  0  0  0  0  0  0  0  0  0  0  0
   -5.4229    1.8224    1.7436 H   0  0  0  0  0  0  0  0  0  0  0  0
   -4.0685    2.6912    1.1350 H   0  0  0  0  0  0  0  0  0  0  0  0
  1  2  1  0  0  0  0
  1  5  2  0  0  0  0
  1 13  1  0  0  0  0
  2  3  2  0  0  0  0
  2  6  1  0  0  0  0
  3  4  1  0  0  0  0
  3  9  1  0  0  0  0
  4  5  1  0  0  0  0
  4 23  1  0  0  0  0
  5 10  1  0  0  0  0
  6  7  2  0  0  0  0
  6 24  1  0  0  0  0
  7  8  1  0  0  0  0
  7 21  1  0  0  0  0
  8  9  2  0  0  0  0
  8 25  1  0  0  0  0
  9 26  1  0  0  0  0
 10 11  2  0  0  0  0
 10 27  1  0  0  0  0
 11 12  1  0  0  0  0
 12 13  2  0  0  0  0
 12 14  1  0  0  0  0
 13 16  1  0  0  0  0
 14 15  2  0  0  0  0
 14 17  1  0  0  0  0
 15 16  1  0  0  0  0
 15 20  1  0  0  0  0
 16 28  1  0  0  0  0
 17 18  2  0  0  0  0
 17 29  1  0  0  0  0
 18 19  1  0  0  0  0
 18 30  1  0  0  0  0
 19 20  2  0  0  0  0
 19 22  1  0  0  0  0
 20 31  1  0  0  0  0
 21 32  1  0  0  0  0
 21 33  1  0  0  0  0
M  END
