9-29
 OpenBabel04201808233D
Structure written by MMmdl.
 31 35  0  0  0  0  0  0  0  0999 V2000
   -0.2614   -0.7460    0.8946 C   0  0  0  0  0  0  0  0  0  0  0  0
   -1.5925   -0.3615    1.2248 C   0  0  0  0  0  0  0  0  0  0  0  0
   -2.1992   -1.5496    1.6646 C   0  0  0  0  0  0  0  0  0  0  0  0
   -1.2621   -2.5711    1.5913 N   0  0  0  0  0  0  0  0  0  0  0  0
   -0.0677   -2.0911    1.1201 C   0  0  0  0  0  0  0  0  0  0  0  0
   -2.3636    0.8199    1.2128 C   0  0  0  0  0  0  0  0  0  0  0  0
   -3.6974    0.7682    1.6364 C   0  0  0  0  0  0  0  0  0  0  0  0
   -4.2754   -0.4218    2.0678 C   0  0  0  0  0  0  0  0  0  0  0  0
   -3.5333   -1.6052    2.0892 C   0  0  0  0  0  0  0  0  0  0  0  0
    1.1686   -2.6746    0.8616 C   0  0  0  0  0  0  0  0  0  0  0  0
    2.2061   -1.9262    0.3822 N   0  0  0  0  0  0  0  0  0  0  0  0
    1.9925   -0.5984    0.1665 C   0  0  0  0  0  0  0  0  0  0  0  0
    0.7774   -0.0080    0.4168 C   0  0  0  0  0  0  0  0  0  0  0  0
    2.8437    0.4355   -0.3160 C   0  0  0  0  0  0  0  0  0  0  0  0
    2.0838    1.6163   -0.3319 C   0  0  0  0  0  0  0  0  0  0  0  0
    0.8122    1.3025    0.1277 N   0  0  0  0  0  0  0  0  0  0  0  0
    4.1866    0.4914   -0.7427 C   0  0  0  0  0  0  0  0  0  0  0  0
    4.7226    1.7128   -1.1675 C   0  0  0  0  0  0  0  0  0  0  0  0
    3.9437    2.8684   -1.1723 C   0  0  0  0  0  0  0  0  0  0  0  0
    2.6092    2.8433   -0.7548 C   0  0  0  0  0  0  0  0  0  0  0  0
   -4.7354    2.3527    1.6214 Br  0  0  0  0  0  0  0  0  0  0  0  0
   -1.4413   -3.5335    1.8509 H   0  0  0  0  0  0  0  0  0  0  0  0
   -1.9401    1.7620    0.8819 H   0  0  0  0  0  0  0  0  0  0  0  0
   -5.3136   -0.4462    2.3942 H   0  0  0  0  0  0  0  0  0  0  0  0
   -3.9822   -2.5368    2.4257 H   0  0  0  0  0  0  0  0  0  0  0  0
    1.3622   -3.7304    1.0257 H   0  0  0  0  0  0  0  0  0  0  0  0
    0.0621    1.9748    0.2166 H   0  0  0  0  0  0  0  0  0  0  0  0
    4.8011   -0.4063   -0.7418 H   0  0  0  0  0  0  0  0  0  0  0  0
    5.7596    1.7586   -1.4974 H   0  0  0  0  0  0  0  0  0  0  0  0
    4.3808    3.8089   -1.5070 H   0  0  0  0  0  0  0  0  0  0  0  0
    2.0061    3.7481   -0.7606 H   0  0  0  0  0  0  0  0  0  0  0  0
  1  2  1  0  0  0  0
  1  5  2  0  0  0  0
  1 13  1  0  0  0  0
  2  3  2  0  0  0  0
  2  6  1  0  0  0  0
  3  4  1  0  0  0  0
  3  9  1  0  0  0  0
  4  5  1  0  0  0  0
  4 22  1  0  0  0  0
  5 10  1  0  0  0  0
  6  7  2  0  0  0  0
  6 23  1  0  0  0  0
  7  8  1  0  0  0  0
  7 21  1  0  0  0  0
  8  9  2  0  0  0  0
  8 24  1  0  0  0  0
  9 25  1  0  0  0  0
 10 11  2  0  0  0  0
 10 26  1  0  0  0  0
 11 12  1  0  0  0  0
 12 13  2  0  0  0  0
 12 14  1  0  0  0  0
 13 16  1  0  0  0  0
 14 15  2  0  0  0  0
 14 17  1  0  0  0  0
 15 16  1  0  0  0  0
 15 20  1  0  0  0  0
 16 27  1  0  0  0  0
 17 18  2  0  0  0  0
 17 28  1  0  0  0  0
 18 19  1  0  0  0  0
 18 29  1  0  0  0  0
 19 20  2  0  0  0  0
 19 30  1  0  0  0  0
 20 31  1  0  0  0  0
M  END
