9-30
 OpenBabel04201808233D
Structure written by MMmdl.
 31 35  0  0  0  0  0  0  0  0999 V2000
   -0.5979   -0.7471    1.0913 C   0  0  0  0  0  0  0  0  0  0  0  0
   -1.9264   -0.3603    1.4289 C   0  0  0  0  0  0  0  0  0  0  0  0
   -2.5329   -1.5473    1.8715 C   0  0  0  0  0  0  0  0  0  0  0  0
   -1.5981   -2.5706    1.7929 N   0  0  0  0  0  0  0  0  0  0  0  0
   -0.4054   -2.0927    1.3152 C   0  0  0  0  0  0  0  0  0  0  0  0
   -2.6952    0.8226    1.4213 C   0  0  0  0  0  0  0  0  0  0  0  0
   -4.0268    0.7733    1.8521 C   0  0  0  0  0  0  0  0  0  0  0  0
   -4.6047   -0.4157    2.2861 C   0  0  0  0  0  0  0  0  0  0  0  0
   -3.8648   -1.6005    2.3032 C   0  0  0  0  0  0  0  0  0  0  0  0
    0.8283   -2.6785    1.0497 C   0  0  0  0  0  0  0  0  0  0  0  0
    1.8644   -1.9318    0.5647 N   0  0  0  0  0  0  0  0  0  0  0  0
    1.6518   -0.6039    0.3508 C   0  0  0  0  0  0  0  0  0  0  0  0
    0.4396   -0.0110    0.6080 C   0  0  0  0  0  0  0  0  0  0  0  0
    2.5028    0.4277   -0.1361 C   0  0  0  0  0  0  0  0  0  0  0  0
    1.7456    1.6104   -0.1474 C   0  0  0  0  0  0  0  0  0  0  0  0
    0.4758    1.2995    0.3193 N   0  0  0  0  0  0  0  0  0  0  0  0
    3.8439    0.4765   -0.5698 C   0  0  0  0  0  0  0  0  0  0  0  0
    4.3733    1.6987   -0.9956 C   0  0  0  0  0  0  0  0  0  0  0  0
    3.6027    2.8597   -0.9981 C   0  0  0  0  0  0  0  0  0  0  0  0
    2.2703    2.8367   -0.5726 C   0  0  0  0  0  0  0  0  0  0  0  0
   -5.0617    2.3599    1.8430 Br  0  0  0  0  0  0  0  0  0  0  0  0
    6.1728    1.7741   -1.5797 Br  0  0  0  0  0  0  0  0  0  0  0  0
   -1.7778   -3.5327    2.0531 H   0  0  0  0  0  0  0  0  0  0  0  0
   -2.2717    1.7640    1.0884 H   0  0  0  0  0  0  0  0  0  0  0  0
   -5.6413   -0.4382    2.6181 H   0  0  0  0  0  0  0  0  0  0  0  0
   -4.3137   -2.5313    2.6419 H   0  0  0  0  0  0  0  0  0  0  0  0
    1.0209   -3.7347    1.2123 H   0  0  0  0  0  0  0  0  0  0  0  0
   -0.2722    1.9735    0.4129 H   0  0  0  0  0  0  0  0  0  0  0  0
    4.4457   -0.4284   -0.5682 H   0  0  0  0  0  0  0  0  0  0  0  0
    4.0296    3.8039   -1.3328 H   0  0  0  0  0  0  0  0  0  0  0  0
    1.6688    3.7425   -0.5744 H   0  0  0  0  0  0  0  0  0  0  0  0
  1  2  1  0  0  0  0
  1  5  2  0  0  0  0
  1 13  1  0  0  0  0
  2  3  2  0  0  0  0
  2  6  1  0  0  0  0
  3  4  1  0  0  0  0
  3  9  1  0  0  0  0
  4  5  1  0  0  0  0
  4 23  1  0  0  0  0
  5 10  1  0  0  0  0
  6  7  2  0  0  0  0
  6 24  1  0  0  0  0
  7  8  1  0  0  0  0
  7 21  1  0  0  0  0
  8  9  2  0  0  0  0
  8 25  1  0  0  0  0
  9 26  1  0  0  0  0
 10 11  2  0  0  0  0
 10 27  1  0  0  0  0
 11 12  1  0  0  0  0
 12 13  2  0  0  0  0
 12 14  1  0  0  0  0
 13 16  1  0  0  0  0
 14 15  2  0  0  0  0
 14 17  1  0  0  0  0
 15 16  1  0  0  0  0
 15 20  1  0  0  0  0
 16 28  1  0  0  0  0
 17 18  2  0  0  0  0
 17 29  1  0  0  0  0
 18 19  1  0  0  0  0
 18 22  1  0  0  0  0
 19 20  2  0  0  0  0
 19 30  1  0  0  0  0
 20 31  1  0  0  0  0
M  END
