9-31
 OpenBabel04201808233D
Structure written by MMmdl.
 31 35  0  0  0  0  0  0  0  0999 V2000
   -0.2618   -1.0252    0.8945 C   0  0  0  0  0  0  0  0  0  0  0  0
   -1.5915   -0.6399    1.2278 C   0  0  0  0  0  0  0  0  0  0  0  0
   -2.2004   -1.8293    1.6612 C   0  0  0  0  0  0  0  0  0  0  0  0
   -1.2653   -2.8523    1.5812 N   0  0  0  0  0  0  0  0  0  0  0  0
   -0.0703   -2.3719    1.1118 C   0  0  0  0  0  0  0  0  0  0  0  0
   -2.3599    0.5431    1.2231 C   0  0  0  0  0  0  0  0  0  0  0  0
   -3.6932    0.4926    1.6472 C   0  0  0  0  0  0  0  0  0  0  0  0
   -4.2729   -0.6988    2.0721 C   0  0  0  0  0  0  0  0  0  0  0  0
   -3.5342   -1.8845    2.0866 C   0  0  0  0  0  0  0  0  0  0  0  0
    1.1649   -2.9558    0.8486 C   0  0  0  0  0  0  0  0  0  0  0  0
    2.2030   -2.2059    0.3726 N   0  0  0  0  0  0  0  0  0  0  0  0
    1.9912   -0.8768    0.1654 C   0  0  0  0  0  0  0  0  0  0  0  0
    0.7776   -0.2863    0.4204 C   0  0  0  0  0  0  0  0  0  0  0  0
    2.8434    0.1587   -0.3116 C   0  0  0  0  0  0  0  0  0  0  0  0
    2.0854    1.3423   -0.3197 C   0  0  0  0  0  0  0  0  0  0  0  0
    0.8142    1.0251    0.1397 N   0  0  0  0  0  0  0  0  0  0  0  0
    4.1867    0.2124   -0.7391 C   0  0  0  0  0  0  0  0  0  0  0  0
    4.7300    1.4326   -1.1582 C   0  0  0  0  0  0  0  0  0  0  0  0
    3.9573    2.5929   -1.1570 C   0  0  0  0  0  0  0  0  0  0  0  0
    2.6245    2.5649   -0.7381 C   0  0  0  0  0  0  0  0  0  0  0  0
   -4.6346    1.9375    1.6423 Cl  0  0  0  0  0  0  0  0  0  0  0  0
    1.6832    4.0028   -0.7416 Cl  0  0  0  0  0  0  0  0  0  0  0  0
   -1.4462   -3.8159    1.8353 H   0  0  0  0  0  0  0  0  0  0  0  0
   -1.9382    1.4877    0.8979 H   0  0  0  0  0  0  0  0  0  0  0  0
   -5.3110   -0.7189    2.3985 H   0  0  0  0  0  0  0  0  0  0  0  0
   -3.9853   -2.8168    2.4182 H   0  0  0  0  0  0  0  0  0  0  0  0
    1.3570   -4.0128    1.0060 H   0  0  0  0  0  0  0  0  0  0  0  0
    0.0667    1.6995    0.2330 H   0  0  0  0  0  0  0  0  0  0  0  0
    4.7971   -0.6886   -0.7433 H   0  0  0  0  0  0  0  0  0  0  0  0
    5.7671    1.4742   -1.4883 H   0  0  0  0  0  0  0  0  0  0  0  0
    4.4045    3.5286   -1.4879 H   0  0  0  0  0  0  0  0  0  0  0  0
  1  2  1  0  0  0  0
  1  5  2  0  0  0  0
  1 13  1  0  0  0  0
  2  3  2  0  0  0  0
  2  6  1  0  0  0  0
  3  4  1  0  0  0  0
  3  9  1  0  0  0  0
  4  5  1  0  0  0  0
  4 23  1  0  0  0  0
  5 10  1  0  0  0  0
  6  7  2  0  0  0  0
  6 24  1  0  0  0  0
  7  8  1  0  0  0  0
  7 21  1  0  0  0  0
  8  9  2  0  0  0  0
  8 25  1  0  0  0  0
  9 26  1  0  0  0  0
 10 11  2  0  0  0  0
 10 27  1  0  0  0  0
 11 12  1  0  0  0  0
 12 13  2  0  0  0  0
 12 14  1  0  0  0  0
 13 16  1  0  0  0  0
 14 15  2  0  0  0  0
 14 17  1  0  0  0  0
 15 16  1  0  0  0  0
 15 20  1  0  0  0  0
 16 28  1  0  0  0  0
 17 18  2  0  0  0  0
 17 29  1  0  0  0  0
 18 19  1  0  0  0  0
 18 30  1  0  0  0  0
 19 20  2  0  0  0  0
 19 31  1  0  0  0  0
 20 22  1  0  0  0  0
M  END
