11-11a
 OpenBabel04201808233D
Structure written by MMmdl.
 37 42  0  0  0  0  0  0  0  0999 V2000
   -3.4871   -3.0491   -0.7667 C   0  0  0  0  0  0  0  0  0  0  0  0
   -3.4729   -4.4204   -0.5301 C   0  0  0  0  0  0  0  0  0  0  0  0
   -2.3138   -5.0593   -0.0846 C   0  0  0  0  0  0  0  0  0  0  0  0
   -1.1694   -4.2757    0.1154 C   0  0  0  0  0  0  0  0  0  0  0  0
   -1.1521   -2.8902   -0.1146 C   0  0  0  0  0  0  0  0  0  0  0  0
   -2.3380   -2.2732   -0.5641 C   0  0  0  0  0  0  0  0  0  0  0  0
    0.0919   -4.6619    0.5480 N   0  0  0  0  0  0  0  0  0  0  0  0
    0.9294   -3.5781    0.6077 C   0  0  0  0  0  0  0  0  0  0  0  0
    0.1782   -2.4957    0.2052 C   0  0  0  0  0  0  0  0  0  0  0  0
    2.2630   -3.4104    0.9673 C   0  0  0  0  0  0  0  0  0  0  0  0
    2.8458   -2.1752    0.9268 N   0  0  0  0  0  0  0  0  0  0  0  0
    2.0836   -1.1200    0.5256 C   0  0  0  0  0  0  0  0  0  0  0  0
    0.7674   -1.2698    0.1682 C   0  0  0  0  0  0  0  0  0  0  0  0
    2.3786    0.2646    0.3759 C   0  0  0  0  0  0  0  0  0  0  0  0
    1.2038    0.8944   -0.0732 C   0  0  0  0  0  0  0  0  0  0  0  0
    0.2306   -0.0931   -0.1882 N   0  0  0  0  0  0  0  0  0  0  0  0
    3.5335    1.0460    0.5790 C   0  0  0  0  0  0  0  0  0  0  0  0
    3.4938    2.4246    0.3327 C   0  0  0  0  0  0  0  0  0  0  0  0
    2.3238    3.0506   -0.1144 C   0  0  0  0  0  0  0  0  0  0  0  0
    1.1477    2.2898   -0.3272 C   0  0  0  0  0  0  0  0  0  0  0  0
    2.2831    4.4314   -0.3613 C   0  0  0  0  0  0  0  0  0  0  0  0
    1.1089    5.0451   -0.8075 C   0  0  0  0  0  0  0  0  0  0  0  0
   -0.0441    4.2898   -1.0145 C   0  0  0  0  0  0  0  0  0  0  0  0
   -0.0324    2.9151   -0.7771 C   0  0  0  0  0  0  0  0  0  0  0  0
   -4.4023   -2.5708   -1.1139 H   0  0  0  0  0  0  0  0  0  0  0  0
   -4.3777   -5.0049   -0.6942 H   0  0  0  0  0  0  0  0  0  0  0  0
   -2.3054   -6.1311    0.0996 H   0  0  0  0  0  0  0  0  0  0  0  0
   -2.3870   -1.2062   -0.7592 H   0  0  0  0  0  0  0  0  0  0  0  0
    0.3509   -5.6120    0.7847 H   0  0  0  0  0  0  0  0  0  0  0  0
    2.8896   -4.2364    1.2900 H   0  0  0  0  0  0  0  0  0  0  0  0
   -0.7175    0.0786   -0.4932 H   0  0  0  0  0  0  0  0  0  0  0  0
    4.4542    0.5812    0.9260 H   0  0  0  0  0  0  0  0  0  0  0  0
    4.4005    3.0070    0.4975 H   0  0  0  0  0  0  0  0  0  0  0  0
    3.1698    5.0460   -0.2079 H   0  0  0  0  0  0  0  0  0  0  0  0
    1.0958    6.1179   -0.9938 H   0  0  0  0  0  0  0  0  0  0  0  0
   -0.9556    4.7734   -1.3621 H   0  0  0  0  0  0  0  0  0  0  0  0
   -0.9450    2.3479   -0.9462 H   0  0  0  0  0  0  0  0  0  0  0  0
  1  2  2  0  0  0  0
  1  6  1  0  0  0  0
  1 25  1  0  0  0  0
  2  3  1  0  0  0  0
  2 26  1  0  0  0  0
  3  4  2  0  0  0  0
  3 27  1  0  0  0  0
  4  5  1  0  0  0  0
  4  7  1  0  0  0  0
  5  6  2  0  0  0  0
  5  9  1  0  0  0  0
  6 28  1  0  0  0  0
  7  8  1  0  0  0  0
  7 29  1  0  0  0  0
  8  9  2  0  0  0  0
  8 10  1  0  0  0  0
  9 13  1  0  0  0  0
 10 11  2  0  0  0  0
 10 30  1  0  0  0  0
 11 12  1  0  0  0  0
 12 13  2  0  0  0  0
 12 14  1  0  0  0  0
 13 16  1  0  0  0  0
 14 15  2  0  0  0  0
 14 17  1  0  0  0  0
 15 16  1  0  0  0  0
 15 20  1  0  0  0  0
 16 31  1  0  0  0  0
 17 18  2  0  0  0  0
 17 32  1  0  0  0  0
 18 19  1  0  0  0  0
 18 33  1  0  0  0  0
 19 20  2  0  0  0  0
 19 21  1  0  0  0  0
 20 24  1  0  0  0  0
 21 22  2  0  0  0  0
 21 34  1  0  0  0  0
 22 23  1  0  0  0  0
 22 35  1  0  0  0  0
 23 24  2  0  0  0  0
 23 36  1  0  0  0  0
 24 37  1  0  0  0  0
M  END
