11-11b
 OpenBabel04201808233D
Structure written by MMmdl.
 37 42  0  0  0  0  0  0  0  0999 V2000
   -4.0967   -3.0746   -0.8135 C   0  0  0  0  0  0  0  0  0  0  0  0
   -4.0848   -4.4476   -0.5865 C   0  0  0  0  0  0  0  0  0  0  0  0
   -2.9276   -5.0912   -0.1426 C   0  0  0  0  0  0  0  0  0  0  0  0
   -1.7828   -4.3105    0.0658 C   0  0  0  0  0  0  0  0  0  0  0  0
   -1.7631   -2.9235   -0.1542 C   0  0  0  0  0  0  0  0  0  0  0  0
   -2.9470   -2.3018   -0.6024 C   0  0  0  0  0  0  0  0  0  0  0  0
   -0.5230   -4.7014    0.4988 N   0  0  0  0  0  0  0  0  0  0  0  0
    0.3156   -3.6190    0.5687 C   0  0  0  0  0  0  0  0  0  0  0  0
   -0.4333   -2.5328    0.1721 C   0  0  0  0  0  0  0  0  0  0  0  0
    1.6484   -3.4558    0.9334 C   0  0  0  0  0  0  0  0  0  0  0  0
    2.2332   -2.2212    0.9043 N   0  0  0  0  0  0  0  0  0  0  0  0
    1.4738   -1.1619    0.5089 C   0  0  0  0  0  0  0  0  0  0  0  0
    0.1571   -1.3073    0.1459 C   0  0  0  0  0  0  0  0  0  0  0  0
    1.7712    0.2232    0.3714 C   0  0  0  0  0  0  0  0  0  0  0  0
    0.6001    0.8506   -0.0749 C   0  0  0  0  0  0  0  0  0  0  0  0
   -0.3774   -0.1265   -0.2033 N   0  0  0  0  0  0  0  0  0  0  0  0
    2.9209    1.0122    0.5814 C   0  0  0  0  0  0  0  0  0  0  0  0
    2.8807    2.3989    0.3446 C   0  0  0  0  0  0  0  0  0  0  0  0
    1.6847    3.0046   -0.1059 C   0  0  0  0  0  0  0  0  0  0  0  0
    0.5316    2.2285   -0.3191 C   0  0  0  0  0  0  0  0  0  0  0  0
    4.0183    3.1960    0.5504 C   0  0  0  0  0  0  0  0  0  0  0  0
    3.9809    4.5713    0.3162 C   0  0  0  0  0  0  0  0  0  0  0  0
    2.8053    5.1677   -0.1270 C   0  0  0  0  0  0  0  0  0  0  0  0
    1.6654    4.3894   -0.3364 C   0  0  0  0  0  0  0  0  0  0  0  0
   -5.0103   -2.5926   -1.1596 H   0  0  0  0  0  0  0  0  0  0  0  0
   -4.9900   -5.0297   -0.7570 H   0  0  0  0  0  0  0  0  0  0  0  0
   -2.9211   -6.1643    0.0340 H   0  0  0  0  0  0  0  0  0  0  0  0
   -2.9936   -1.2333   -0.7899 H   0  0  0  0  0  0  0  0  0  0  0  0
   -0.2657   -5.6534    0.7293 H   0  0  0  0  0  0  0  0  0  0  0  0
    2.2729   -4.2851    1.2517 H   0  0  0  0  0  0  0  0  0  0  0  0
   -1.3235    0.0558   -0.5109 H   0  0  0  0  0  0  0  0  0  0  0  0
    3.8349    0.5334    0.9281 H   0  0  0  0  0  0  0  0  0  0  0  0
   -0.3956    2.6809   -0.6653 H   0  0  0  0  0  0  0  0  0  0  0  0
    4.9497    2.7491    0.8974 H   0  0  0  0  0  0  0  0  0  0  0  0
    4.8713    5.1757    0.4806 H   0  0  0  0  0  0  0  0  0  0  0  0
    2.7728    6.2402   -0.3107 H   0  0  0  0  0  0  0  0  0  0  0  0
    0.7552    4.8780   -0.6839 H   0  0  0  0  0  0  0  0  0  0  0  0
  1  2  2  0  0  0  0
  1  6  1  0  0  0  0
  1 25  1  0  0  0  0
  2  3  1  0  0  0  0
  2 26  1  0  0  0  0
  3  4  2  0  0  0  0
  3 27  1  0  0  0  0
  4  5  1  0  0  0  0
  4  7  1  0  0  0  0
  5  6  2  0  0  0  0
  5  9  1  0  0  0  0
  6 28  1  0  0  0  0
  7  8  1  0  0  0  0
  7 29  1  0  0  0  0
  8  9  2  0  0  0  0
  8 10  1  0  0  0  0
  9 13  1  0  0  0  0
 10 11  2  0  0  0  0
 10 30  1  0  0  0  0
 11 12  1  0  0  0  0
 12 13  2  0  0  0  0
 12 14  1  0  0  0  0
 13 16  1  0  0  0  0
 14 15  2  0  0  0  0
 14 17  1  0  0  0  0
 15 16  1  0  0  0  0
 15 20  1  0  0  0  0
 16 31  1  0  0  0  0
 17 18  2  0  0  0  0
 17 32  1  0  0  0  0
 18 19  1  0  0  0  0
 18 21  1  0  0  0  0
 19 20  2  0  0  0  0
 19 24  1  0  0  0  0
 20 33  1  0  0  0  0
 21 22  2  0  0  0  0
 21 34  1  0  0  0  0
 22 23  1  0  0  0  0
 22 35  1  0  0  0  0
 23 24  2  0  0  0  0
 23 36  1  0  0  0  0
 24 37  1  0  0  0  0
M  END
