6-17
 OpenBabel04201808233D
Structure written by MMmdl.
 32 36  0  0  0  0  0  0  0  0999 V2000
    0.0454   -1.0532    0.8585 C   0  0  0  0  0  0  0  0  0  0  0  0
   -1.3371   -0.9190    1.1992 C   0  0  0  0  0  0  0  0  0  0  0  0
   -1.7203   -2.1976    1.6366 C   0  0  0  0  0  0  0  0  0  0  0  0
   -0.6181   -3.0340    1.5550 N   0  0  0  0  0  0  0  0  0  0  0  0
    0.4713   -2.3497    1.0807 C   0  0  0  0  0  0  0  0  0  0  0  0
   -2.3156    0.0989    1.1998 C   0  0  0  0  0  0  0  0  0  0  0  0
   -3.6191   -0.1874    1.6285 C   0  0  0  0  0  0  0  0  0  0  0  0
   -3.9644   -1.4651    2.0555 C   0  0  0  0  0  0  0  0  0  0  0  0
   -3.0210   -2.4938    2.0673 C   0  0  0  0  0  0  0  0  0  0  0  0
    1.7947   -2.7244    0.8186 C   0  0  0  0  0  0  0  0  0  0  0  0
    2.6824   -1.7352    0.3195 C   0  0  0  0  0  0  0  0  0  0  0  0
    2.2443   -0.4087    0.0928 C   0  0  0  0  0  0  0  0  0  0  0  0
    0.9238   -0.1186    0.3762 C   0  0  0  0  0  0  0  0  0  0  0  0
    2.8199    0.8085   -0.3810 C   0  0  0  0  0  0  0  0  0  0  0  0
    1.8105    1.7805   -0.3599 C   0  0  0  0  0  0  0  0  0  0  0  0
    0.6572    1.1740    0.1118 N   0  0  0  0  0  0  0  0  0  0  0  0
    4.1046    1.1809   -0.8274 C   0  0  0  0  0  0  0  0  0  0  0  0
    4.3359    2.5004   -1.2342 C   0  0  0  0  0  0  0  0  0  0  0  0
    3.3121    3.4449   -1.2020 C   0  0  0  0  0  0  0  0  0  0  0  0
    2.0289    3.1035   -0.7641 C   0  0  0  0  0  0  0  0  0  0  0  0
   -0.6215   -4.0137    1.8111 H   0  0  0  0  0  0  0  0  0  0  0  0
   -2.0906    1.1098    0.8751 H   0  0  0  0  0  0  0  0  0  0  0  0
   -4.3694    0.6023    1.6265 H   0  0  0  0  0  0  0  0  0  0  0  0
   -4.9830   -1.6672    2.3849 H   0  0  0  0  0  0  0  0  0  0  0  0
   -3.2922   -3.4927    2.4015 H   0  0  0  0  0  0  0  0  0  0  0  0
    2.1416   -3.7408    0.9892 H   0  0  0  0  0  0  0  0  0  0  0  0
    3.7156   -2.0080    0.1097 H   0  0  0  0  0  0  0  0  0  0  0  0
   -0.2228    1.6571    0.2251 H   0  0  0  0  0  0  0  0  0  0  0  0
    4.9121    0.4526   -0.8571 H   0  0  0  0  0  0  0  0  0  0  0  0
    5.3276    2.7899   -1.5794 H   0  0  0  0  0  0  0  0  0  0  0  0
    3.5131    4.4666   -1.5230 H   0  0  0  0  0  0  0  0  0  0  0  0
    1.2324    3.8434   -0.7404 H   0  0  0  0  0  0  0  0  0  0  0  0
  1  2  1  0  0  0  0
  1  5  2  0  0  0  0
  1 13  1  0  0  0  0
  2  3  2  0  0  0  0
  2  6  1  0  0  0  0
  3  4  1  0  0  0  0
  3  9  1  0  0  0  0
  4  5  1  0  0  0  0
  4 21  1  0  0  0  0
  5 10  1  0  0  0  0
  6  7  2  0  0  0  0
  6 22  1  0  0  0  0
  7  8  1  0  0  0  0
  7 23  1  0  0  0  0
  8  9  2  0  0  0  0
  8 24  1  0  0  0  0
  9 25  1  0  0  0  0
 10 11  2  0  0  0  0
 10 26  1  0  0  0  0
 11 12  1  0  0  0  0
 11 27  1  0  0  0  0
 12 13  2  0  0  0  0
 12 14  1  0  0  0  0
 13 16  1  0  0  0  0
 14 15  2  0  0  0  0
 14 17  1  0  0  0  0
 15 16  1  0  0  0  0
 15 20  1  0  0  0  0
 16 28  1  0  0  0  0
 17 18  2  0  0  0  0
 17 29  1  0  0  0  0
 18 19  1  0  0  0  0
 18 30  1  0  0  0  0
 19 20  2  0  0  0  0
 19 31  1  0  0  0  0
 20 32  1  0  0  0  0
M  END
