11-2-azadiindole
 OpenBabel04201808233D
Structure written by MMmdl.
 30 34  0  0  0  0  0  0  0  0999 V2000
   -3.4928   -1.5780   -0.7857 C   0  0  0  0  0  0  0  0  0  0  0  0
   -3.4582   -2.9480   -0.5432 C   0  0  0  0  0  0  0  0  0  0  0  0
   -2.2875   -3.5688   -0.1023 C   0  0  0  0  0  0  0  0  0  0  0  0
   -1.1529   -2.7686    0.0871 C   0  0  0  0  0  0  0  0  0  0  0  0
   -1.1561   -1.3841   -0.1490 C   0  0  0  0  0  0  0  0  0  0  0  0
   -2.3532   -0.7856   -0.5938 C   0  0  0  0  0  0  0  0  0  0  0  0
    0.1163   -3.1355    0.5132 N   0  0  0  0  0  0  0  0  0  0  0  0
    0.9391   -2.0400    0.5631 C   0  0  0  0  0  0  0  0  0  0  0  0
    0.1705   -0.9697    0.1609 C   0  0  0  0  0  0  0  0  0  0  0  0
    2.2726   -1.8530    0.9138 C   0  0  0  0  0  0  0  0  0  0  0  0
    2.8385   -0.6102    0.8651 N   0  0  0  0  0  0  0  0  0  0  0  0
    2.0601    0.4328    0.4647 C   0  0  0  0  0  0  0  0  0  0  0  0
    0.7422    0.2642    0.1153 C   0  0  0  0  0  0  0  0  0  0  0  0
    2.3368    1.8194    0.3089 C   0  0  0  0  0  0  0  0  0  0  0  0
    1.1508    2.4242   -0.1342 C   0  0  0  0  0  0  0  0  0  0  0  0
    0.1867    1.4329   -0.2426 N   0  0  0  0  0  0  0  0  0  0  0  0
    3.4684    2.6258    0.4969 C   0  0  0  0  0  0  0  0  0  0  0  0
    3.3201    3.9766    0.2251 C   0  0  0  0  0  0  0  0  0  0  0  0
    2.1720    4.5563   -0.2030 N   0  0  0  0  0  0  0  0  0  0  0  0
    1.0692    3.7871   -0.3890 C   0  0  0  0  0  0  0  0  0  0  0  0
   -4.4166   -1.1139   -1.1291 H   0  0  0  0  0  0  0  0  0  0  0  0
   -4.3558   -3.5456   -0.6989 H   0  0  0  0  0  0  0  0  0  0  0  0
   -2.2631   -4.6396    0.0866 H   0  0  0  0  0  0  0  0  0  0  0  0
   -2.4179    0.2798   -0.7932 H   0  0  0  0  0  0  0  0  0  0  0  0
    0.3900   -4.0808    0.7524 H   0  0  0  0  0  0  0  0  0  0  0  0
    2.9121   -2.6692    1.2359 H   0  0  0  0  0  0  0  0  0  0  0  0
   -0.7650    1.5972   -0.5436 H   0  0  0  0  0  0  0  0  0  0  0  0
    4.4144    2.2193    0.8375 H   0  0  0  0  0  0  0  0  0  0  0  0
    4.1640    4.6527    0.3527 H   0  0  0  0  0  0  0  0  0  0  0  0
    0.1639    4.2767   -0.7321 H   0  0  0  0  0  0  0  0  0  0  0  0
  1  2  2  0  0  0  0
  1  6  1  0  0  0  0
  1 21  1  0  0  0  0
  2  3  1  0  0  0  0
  2 22  1  0  0  0  0
  3  4  2  0  0  0  0
  3 23  1  0  0  0  0
  4  5  1  0  0  0  0
  4  7  1  0  0  0  0
  5  6  2  0  0  0  0
  5  9  1  0  0  0  0
  6 24  1  0  0  0  0
  7  8  1  0  0  0  0
  7 25  1  0  0  0  0
  8  9  2  0  0  0  0
  8 10  1  0  0  0  0
  9 13  1  0  0  0  0
 10 11  2  0  0  0  0
 10 26  1  0  0  0  0
 11 12  1  0  0  0  0
 12 13  2  0  0  0  0
 12 14  1  0  0  0  0
 13 16  1  0  0  0  0
 14 15  2  0  0  0  0
 14 17  1  0  0  0  0
 15 16  1  0  0  0  0
 15 20  1  0  0  0  0
 16 27  1  0  0  0  0
 17 18  2  0  0  0  0
 17 28  1  0  0  0  0
 18 19  1  0  0  0  0
 18 29  1  0  0  0  0
 19 20  2  0  0  0  0
 20 30  1  0  0  0  0
M  END
