11-11c
 OpenBabel04201808233D
Structure written by MMmdl.
 36 41  0  0  0  0  0  0  0  0999 V2000
   -4.7465   -2.0543   -0.9927 C   0  0  0  0  0  0  0  0  0  0  0  0
   -4.7302   -3.4273   -0.7551 C   0  0  0  0  0  0  0  0  0  0  0  0
   -3.5735   -4.0679   -0.2998 C   0  0  0  0  0  0  0  0  0  0  0  0
   -2.4336   -3.2814   -0.0912 C   0  0  0  0  0  0  0  0  0  0  0  0
   -2.4238   -1.8997   -0.3223 C   0  0  0  0  0  0  0  0  0  0  0  0
   -3.6011   -1.2779   -0.7808 C   0  0  0  0  0  0  0  0  0  0  0  0
   -1.1701   -3.6504    0.3502 N   0  0  0  0  0  0  0  0  0  0  0  0
   -0.3419   -2.5518    0.4126 C   0  0  0  0  0  0  0  0  0  0  0  0
   -1.1217   -1.4981    0.0005 C   0  0  0  0  0  0  0  0  0  0  0  0
    0.9846   -2.3974    0.7843 C   0  0  0  0  0  0  0  0  0  0  0  0
    1.5640   -1.1729    0.7514 N   0  0  0  0  0  0  0  0  0  0  0  0
    0.7820   -0.1478    0.3436 C   0  0  0  0  0  0  0  0  0  0  0  0
   -0.5434   -0.2073   -0.0442 C   0  0  0  0  0  0  0  0  0  0  0  0
    1.0971    1.1989    0.2112 N   0  0  0  0  0  0  0  0  0  0  0  0
   -0.0700    1.8315   -0.2463 C   0  0  0  0  0  0  0  0  0  0  0  0
   -1.0747    0.9876   -0.4055 N   0  0  0  0  0  0  0  0  0  0  0  0
    2.3040    1.8896    0.4575 C   0  0  0  0  0  0  0  0  0  0  0  0
    2.3062    3.2812    0.2232 C   0  0  0  0  0  0  0  0  0  0  0  0
    1.0828    3.9380   -0.2559 C   0  0  0  0  0  0  0  0  0  0  0  0
   -0.0369    3.2322   -0.4732 C   0  0  0  0  0  0  0  0  0  0  0  0
    3.4733    1.2693    0.9142 C   0  0  0  0  0  0  0  0  0  0  0  0
    4.6286    2.0246    1.1343 C   0  0  0  0  0  0  0  0  0  0  0  0
    4.6264    3.3987    0.9016 C   0  0  0  0  0  0  0  0  0  0  0  0
    3.4680    4.0279    0.4466 C   0  0  0  0  0  0  0  0  0  0  0  0
   -5.6598   -1.5782   -1.3473 H   0  0  0  0  0  0  0  0  0  0  0  0
   -5.6330   -4.0130   -0.9266 H   0  0  0  0  0  0  0  0  0  0  0  0
   -3.5655   -5.1396   -0.1158 H   0  0  0  0  0  0  0  0  0  0  0  0
   -3.6253   -0.2066   -0.9696 H   0  0  0  0  0  0  0  0  0  0  0  0
   -0.8998   -4.5962    0.5915 H   0  0  0  0  0  0  0  0  0  0  0  0
    1.6035   -3.2280    1.1102 H   0  0  0  0  0  0  0  0  0  0  0  0
    1.1023    5.0101   -0.4313 H   0  0  0  0  0  0  0  0  0  0  0  0
   -0.9388    3.7221   -0.8272 H   0  0  0  0  0  0  0  0  0  0  0  0
    3.5189    0.2011    1.1084 H   0  0  0  0  0  0  0  0  0  0  0  0
    5.5350    1.5364    1.4897 H   0  0  0  0  0  0  0  0  0  0  0  0
    5.5295    3.9815    1.0751 H   0  0  0  0  0  0  0  0  0  0  0  0
    3.4826    5.1021    0.2696 H   0  0  0  0  0  0  0  0  0  0  0  0
  1  2  2  0  0  0  0
  1  6  1  0  0  0  0
  1 25  1  0  0  0  0
  2  3  1  0  0  0  0
  2 26  1  0  0  0  0
  3  4  2  0  0  0  0
  3 27  1  0  0  0  0
  4  5  1  0  0  0  0
  4  7  1  0  0  0  0
  5  6  2  0  0  0  0
  5  9  1  0  0  0  0
  6 28  1  0  0  0  0
  7  8  1  0  0  0  0
  7 29  1  0  0  0  0
  8  9  2  0  0  0  0
  8 10  1  0  0  0  0
  9 13  1  0  0  0  0
 10 11  2  0  0  0  0
 10 30  1  0  0  0  0
 11 12  1  0  0  0  0
 12 13  2  0  0  0  0
 12 14  1  0  0  0  0
 13 16  1  0  0  0  0
 14 15  1  0  0  0  0
 14 17  1  0  0  0  0
 15 16  2  0  0  0  0
 15 20  1  0  0  0  0
 17 18  2  0  0  0  0
 17 21  1  0  0  0  0
 18 19  1  0  0  0  0
 18 24  1  0  0  0  0
 19 20  2  0  0  0  0
 19 31  1  0  0  0  0
 20 32  1  0  0  0  0
 21 22  2  0  0  0  0
 21 33  1  0  0  0  0
 22 23  1  0  0  0  0
 22 34  1  0  0  0  0
 23 24  2  0  0  0  0
 23 35  1  0  0  0  0
 24 36  1  0  0  0  0
M  END
