7-2
 OpenBabel04201808233D
Structure written by MMmdl.
 31 35  0  0  0  0  0  0  0  0999 V2000
   -3.4430    3.5553    0.4140 C   0  0  0  0  0  0  0  0  0  0  0  0
   -3.5837    2.1629    0.4406 C   0  0  0  0  0  0  0  0  0  0  0  0
   -2.4337    1.3523    0.5357 C   0  0  0  0  0  0  0  0  0  0  0  0
   -1.1764    1.9746    0.6010 C   0  0  0  0  0  0  0  0  0  0  0  0
   -1.0238    3.3663    0.5752 C   0  0  0  0  0  0  0  0  0  0  0  0
   -2.1818    4.1444    0.4804 C   0  0  0  0  0  0  0  0  0  0  0  0
   -0.2178    0.9746    0.6884 N   0  0  0  0  0  0  0  0  0  0  0  0
   -0.8431   -0.2132    0.6783 C   0  0  0  0  0  0  0  0  0  0  0  0
   -2.2042   -0.0517    0.5866 C   0  0  0  0  0  0  0  0  0  0  0  0
   -3.0552   -1.1150    0.5591 N   0  0  0  0  0  0  0  0  0  0  0  0
   -2.5186   -2.3698    0.6260 C   0  0  0  0  0  0  0  0  0  0  0  0
   -1.1420   -2.5493    0.7189 C   0  0  0  0  0  0  0  0  0  0  0  0
   -0.3002   -1.4591    0.7450 C   0  0  0  0  0  0  0  0  0  0  0  0
   -0.3328   -3.6532    0.7992 N   0  0  0  0  0  0  0  0  0  0  0  0
    0.9999   -3.2718    0.8743 C   0  0  0  0  0  0  0  0  0  0  0  0
    1.0600   -1.8690    0.8422 C   0  0  0  0  0  0  0  0  0  0  0  0
    2.1451   -4.0740    0.9677 C   0  0  0  0  0  0  0  0  0  0  0  0
    3.3859   -3.4361    1.0302 C   0  0  0  0  0  0  0  0  0  0  0  0
    3.4779   -2.0478    1.0005 C   0  0  0  0  0  0  0  0  0  0  0  0
    2.3273   -1.2535    0.9071 C   0  0  0  0  0  0  0  0  0  0  0  0
   -4.3298    4.1835    0.3405 H   0  0  0  0  0  0  0  0  0  0  0  0
   -4.5718    1.7105    0.3884 H   0  0  0  0  0  0  0  0  0  0  0  0
   -0.0422    3.8313    0.6267 H   0  0  0  0  0  0  0  0  0  0  0  0
   -2.0950    5.2305    0.4582 H   0  0  0  0  0  0  0  0  0  0  0  0
    0.7768    1.1478    0.7485 H   0  0  0  0  0  0  0  0  0  0  0  0
   -3.2161   -3.2017    0.6026 H   0  0  0  0  0  0  0  0  0  0  0  0
   -0.6557   -4.6130    0.8033 H   0  0  0  0  0  0  0  0  0  0  0  0
    2.0759   -5.1591    0.9910 H   0  0  0  0  0  0  0  0  0  0  0  0
    4.2932   -4.0348    1.1031 H   0  0  0  0  0  0  0  0  0  0  0  0
    4.4560   -1.5706    1.0504 H   0  0  0  0  0  0  0  0  0  0  0  0
    2.4380   -0.1734    0.8864 H   0  0  0  0  0  0  0  0  0  0  0  0
  1  2  2  0  0  0  0
  1  6  1  0  0  0  0
  1 21  1  0  0  0  0
  2  3  1  0  0  0  0
  2 22  1  0  0  0  0
  3  4  2  0  0  0  0
  3  9  1  0  0  0  0
  4  5  1  0  0  0  0
  4  7  1  0  0  0  0
  5  6  2  0  0  0  0
  5 23  1  0  0  0  0
  6 24  1  0  0  0  0
  7  8  1  0  0  0  0
  7 25  1  0  0  0  0
  8  9  2  0  0  0  0
  8 13  1  0  0  0  0
  9 10  1  0  0  0  0
 10 11  2  0  0  0  0
 11 12  1  0  0  0  0
 11 26  1  0  0  0  0
 12 13  2  0  0  0  0
 12 14  1  0  0  0  0
 13 16  1  0  0  0  0
 14 15  1  0  0  0  0
 14 27  1  0  0  0  0
 15 16  2  0  0  0  0
 15 17  1  0  0  0  0
 16 20  1  0  0  0  0
 17 18  2  0  0  0  0
 17 28  1  0  0  0  0
 18 19  1  0  0  0  0
 18 29  1  0  0  0  0
 19 20  2  0  0  0  0
 19 30  1  0  0  0  0
 20 31  1  0  0  0  0
M  END
