Ro22-6762
 OpenBabel04201808233D
Structure written by MMmdl.
 33 35  0  0  0  0  0  0  0  0999 V2000
   -2.1265    2.5089   -0.2328 C   0  0  0  0  0  0  0  0  0  0  0  0
   -2.4086    1.1953    0.1301 C   0  0  0  0  0  0  0  0  0  0  0  0
   -1.3617    0.2996    0.3846 C   0  0  0  0  0  0  0  0  0  0  0  0
   -0.0206    0.7353    0.2546 C   0  0  0  0  0  0  0  0  0  0  0  0
    0.2718    2.0929   -0.0157 C   0  0  0  0  0  0  0  0  0  0  0  0
   -0.8044    2.9526   -0.2954 C   0  0  0  0  0  0  0  0  0  0  0  0
    1.0943   -0.2644    0.3071 C   0  0  0  0  0  0  0  0  0  0  0  0
    2.1248   -0.1597    1.0853 N   0  0  0  0  0  0  0  0  0  0  0  0
    2.2334    1.0788    1.8580 C   0  0  0  0  0  0  0  0  0  0  0  0
    2.6029    2.1973    0.8865 C   0  0  0  0  0  0  0  0  0  0  0  0
    1.6002    2.6391    0.0146 N   0  0  0  0  0  0  0  0  0  0  0  0
    1.0580   -1.4370   -0.6287 C   0  0  0  0  0  0  0  0  0  0  0  0
    3.7358    2.6953    0.9098 O   0  0  0  0  0  0  0  0  0  0  0  0
    0.5953   -1.2999   -1.9444 C   0  0  0  0  0  0  0  0  0  0  0  0
    0.5832   -2.4051   -2.7987 C   0  0  0  0  0  0  0  0  0  0  0  0
    1.0396   -3.6438   -2.3488 C   0  0  0  0  0  0  0  0  0  0  0  0
    1.5162   -3.7812   -1.0458 C   0  0  0  0  0  0  0  0  0  0  0  0
    1.5312   -2.6799   -0.1877 C   0  0  0  0  0  0  0  0  0  0  0  0
    1.8976    3.8035   -0.8168 C   0  0  0  0  0  0  0  0  0  0  0  0
   -1.7327   -1.3128    0.9297 Cl  0  0  0  0  0  0  0  0  0  0  0  0
   -4.0767    0.7454    0.2419 Cl  0  0  0  0  0  0  0  0  0  0  0  0
   -2.9316    3.2120   -0.4381 H   0  0  0  0  0  0  0  0  0  0  0  0
   -0.6479    4.0056   -0.5224 H   0  0  0  0  0  0  0  0  0  0  0  0
    3.0492    0.9691    2.5810 H   0  0  0  0  0  0  0  0  0  0  0  0
    1.3333    1.3191    2.4343 H   0  0  0  0  0  0  0  0  0  0  0  0
    0.2541   -0.3420   -2.3294 H   0  0  0  0  0  0  0  0  0  0  0  0
    0.2215   -2.2982   -3.8201 H   0  0  0  0  0  0  0  0  0  0  0  0
    1.0293   -4.5029   -3.0176 H   0  0  0  0  0  0  0  0  0  0  0  0
    1.8774   -4.7470   -0.6970 H   0  0  0  0  0  0  0  0  0  0  0  0
    1.9045   -2.8005    0.8274 H   0  0  0  0  0  0  0  0  0  0  0  0
    2.9732    3.8911   -0.9977 H   0  0  0  0  0  0  0  0  0  0  0  0
    1.5664    4.7077   -0.2966 H   0  0  0  0  0  0  0  0  0  0  0  0
    1.4035    3.7136   -1.7895 H   0  0  0  0  0  0  0  0  0  0  0  0
  1  2  2  0  0  0  0
  1  6  1  0  0  0  0
  1 22  1  0  0  0  0
  2  3  1  0  0  0  0
  2 21  1  0  0  0  0
  3  4  2  0  0  0  0
  3 20  1  0  0  0  0
  4  5  1  0  0  0  0
  4  7  1  0  0  0  0
  5  6  2  0  0  0  0
  5 11  1  0  0  0  0
  6 23  1  0  0  0  0
  7  8  2  0  0  0  0
  7 12  1  0  0  0  0
  8  9  1  0  0  0  0
  9 10  1  0  0  0  0
  9 24  1  0  0  0  0
  9 25  1  0  0  0  0
 10 11  1  0  0  0  0
 10 13  2  0  0  0  0
 11 19  1  0  0  0  0
 12 14  2  0  0  0  0
 12 18  1  0  0  0  0
 14 15  1  0  0  0  0
 14 26  1  0  0  0  0
 15 16  2  0  0  0  0
 15 27  1  0  0  0  0
 16 17  1  0  0  0  0
 16 28  1  0  0  0  0
 17 18  2  0  0  0  0
 17 29  1  0  0  0  0
 18 30  1  0  0  0  0
 19 31  1  0  0  0  0
 19 32  1  0  0  0  0
 19 33  1  0  0  0  0
M  END
