Ro20-8065
 OpenBabel04201808233D
Structure written by MMmdl.
 30 32  0  0  0  0  0  0  0  0999 V2000
   -2.0875    2.4868   -0.2993 C   0  0  0  0  0  0  0  0  0  0  0  0
   -2.3798    1.1724    0.0619 C   0  0  0  0  0  0  0  0  0  0  0  0
   -1.3426    0.2736    0.3594 C   0  0  0  0  0  0  0  0  0  0  0  0
    0.0010    0.7070    0.2855 C   0  0  0  0  0  0  0  0  0  0  0  0
    0.2794    2.0658    0.0323 C   0  0  0  0  0  0  0  0  0  0  0  0
   -0.7668    2.9309   -0.3084 C   0  0  0  0  0  0  0  0  0  0  0  0
    1.1313   -0.2828    0.3103 C   0  0  0  0  0  0  0  0  0  0  0  0
    2.2148   -0.1589    1.0066 N   0  0  0  0  0  0  0  0  0  0  0  0
    2.3753    1.0524    1.8093 C   0  0  0  0  0  0  0  0  0  0  0  0
    2.6156    2.2326    0.8769 C   0  0  0  0  0  0  0  0  0  0  0  0
    1.5553    2.6556    0.1143 N   0  0  0  0  0  0  0  0  0  0  0  0
    1.0534   -1.4628   -0.6042 C   0  0  0  0  0  0  0  0  0  0  0  0
    3.6955    2.8319    0.8379 O   0  0  0  0  0  0  0  0  0  0  0  0
    1.5214   -2.7147   -0.1814 C   0  0  0  0  0  0  0  0  0  0  0  0
    1.4319   -3.8163   -1.0364 C   0  0  0  0  0  0  0  0  0  0  0  0
    0.8722   -3.6757   -2.3073 C   0  0  0  0  0  0  0  0  0  0  0  0
    0.3972   -2.4332   -2.7267 C   0  0  0  0  0  0  0  0  0  0  0  0
    0.4852   -1.3346   -1.8748 C   0  0  0  0  0  0  0  0  0  0  0  0
   -1.7369   -1.3386    0.8860 Cl  0  0  0  0  0  0  0  0  0  0  0  0
   -4.0512    0.7201    0.1079 Cl  0  0  0  0  0  0  0  0  0  0  0  0
    0.0429   -0.1483   -2.3193 F   0  0  0  0  0  0  0  0  0  0  0  0
   -2.8848    3.1854   -0.5452 H   0  0  0  0  0  0  0  0  0  0  0  0
   -0.5711    3.9763   -0.5444 H   0  0  0  0  0  0  0  0  0  0  0  0
    3.2575    0.9355    2.4478 H   0  0  0  0  0  0  0  0  0  0  0  0
    1.5238    1.2400    2.4729 H   0  0  0  0  0  0  0  0  0  0  0  0
    1.6942    3.5546   -0.3397 H   0  0  0  0  0  0  0  0  0  0  0  0
    1.9428   -2.8538    0.8117 H   0  0  0  0  0  0  0  0  0  0  0  0
    1.7954   -4.7891   -0.7083 H   0  0  0  0  0  0  0  0  0  0  0  0
    0.8045   -4.5365   -2.9705 H   0  0  0  0  0  0  0  0  0  0  0  0
   -0.0378   -2.3161   -3.7155 H   0  0  0  0  0  0  0  0  0  0  0  0
  1  2  2  0  0  0  0
  1  6  1  0  0  0  0
  1 22  1  0  0  0  0
  2  3  1  0  0  0  0
  2 20  1  0  0  0  0
  3  4  2  0  0  0  0
  3 19  1  0  0  0  0
  4  5  1  0  0  0  0
  4  7  1  0  0  0  0
  5  6  2  0  0  0  0
  5 11  1  0  0  0  0
  6 23  1  0  0  0  0
  7  8  2  0  0  0  0
  7 12  1  0  0  0  0
  8  9  1  0  0  0  0
  9 10  1  0  0  0  0
  9 24  1  0  0  0  0
  9 25  1  0  0  0  0
 10 11  1  0  0  0  0
 10 13  2  0  0  0  0
 11 26  1  0  0  0  0
 12 14  2  0  0  0  0
 12 18  1  0  0  0  0
 14 15  1  0  0  0  0
 14 27  1  0  0  0  0
 15 16  2  0  0  0  0
 15 28  1  0  0  0  0
 16 17  1  0  0  0  0
 16 29  1  0  0  0  0
 17 18  2  0  0  0  0
 17 30  1  0  0  0  0
 18 21  1  0  0  0  0
M  END
