Ro20-8552
 OpenBabel04201808233D
Structure written by MMmdl.
 33 35  0  0  0  0  0  0  0  0999 V2000
   -2.0785    2.4649   -0.3225 C   0  0  0  0  0  0  0  0  0  0  0  0
   -2.3663    1.1549    0.0603 C   0  0  0  0  0  0  0  0  0  0  0  0
   -1.3372    0.2601    0.4096 C   0  0  0  0  0  0  0  0  0  0  0  0
    0.0055    0.7102    0.3086 C   0  0  0  0  0  0  0  0  0  0  0  0
    0.2832    2.0663    0.0354 C   0  0  0  0  0  0  0  0  0  0  0  0
   -0.7630    2.9211   -0.3230 C   0  0  0  0  0  0  0  0  0  0  0  0
    1.1401   -0.2774    0.3181 C   0  0  0  0  0  0  0  0  0  0  0  0
    2.2268   -0.1548    1.0093 N   0  0  0  0  0  0  0  0  0  0  0  0
    2.3846    1.0584    1.8110 C   0  0  0  0  0  0  0  0  0  0  0  0
    2.6192    2.2387    0.8768 C   0  0  0  0  0  0  0  0  0  0  0  0
    1.5582    2.6574    0.1130 N   0  0  0  0  0  0  0  0  0  0  0  0
    1.0504   -1.4542   -0.6003 C   0  0  0  0  0  0  0  0  0  0  0  0
    3.6973    2.8413    0.8360 O   0  0  0  0  0  0  0  0  0  0  0  0
    1.5160   -2.7099   -0.1862 C   0  0  0  0  0  0  0  0  0  0  0  0
    1.4178   -3.8080   -1.0450 C   0  0  0  0  0  0  0  0  0  0  0  0
    0.8512   -3.6602   -2.3117 C   0  0  0  0  0  0  0  0  0  0  0  0
    0.3786   -2.4143   -2.7232 C   0  0  0  0  0  0  0  0  0  0  0  0
    0.4757   -1.3194   -1.8672 C   0  0  0  0  0  0  0  0  0  0  0  0
   -1.6763   -1.1371    0.8650 C   0  0  0  0  0  0  0  0  0  0  0  0
   -4.0309    0.6810    0.0572 Cl  0  0  0  0  0  0  0  0  0  0  0  0
    0.0396   -0.1291   -2.3066 F   0  0  0  0  0  0  0  0  0  0  0  0
   -2.8781    3.1500   -0.5975 H   0  0  0  0  0  0  0  0  0  0  0  0
   -0.5716    3.9627   -0.5758 H   0  0  0  0  0  0  0  0  0  0  0  0
    3.2689    0.9449    2.4471 H   0  0  0  0  0  0  0  0  0  0  0  0
    1.5346    1.2438    2.4773 H   0  0  0  0  0  0  0  0  0  0  0  0
    1.6957    3.5534   -0.3470 H   0  0  0  0  0  0  0  0  0  0  0  0
    1.9453   -2.8533    0.8030 H   0  0  0  0  0  0  0  0  0  0  0  0
    1.7805   -4.7830   -0.7229 H   0  0  0  0  0  0  0  0  0  0  0  0
    0.7765   -4.5180   -2.9781 H   0  0  0  0  0  0  0  0  0  0  0  0
   -0.0613   -2.2913   -3.7091 H   0  0  0  0  0  0  0  0  0  0  0  0
   -0.8717   -1.5748    1.4636 H   0  0  0  0  0  0  0  0  0  0  0  0
   -1.8821   -1.7821    0.0058 H   0  0  0  0  0  0  0  0  0  0  0  0
   -2.5492   -1.1354    1.5263 H   0  0  0  0  0  0  0  0  0  0  0  0
  1  2  2  0  0  0  0
  1  6  1  0  0  0  0
  1 22  1  0  0  0  0
  2  3  1  0  0  0  0
  2 20  1  0  0  0  0
  3  4  2  0  0  0  0
  3 19  1  0  0  0  0
  4  5  1  0  0  0  0
  4  7  1  0  0  0  0
  5  6  2  0  0  0  0
  5 11  1  0  0  0  0
  6 23  1  0  0  0  0
  7  8  2  0  0  0  0
  7 12  1  0  0  0  0
  8  9  1  0  0  0  0
  9 10  1  0  0  0  0
  9 24  1  0  0  0  0
  9 25  1  0  0  0  0
 10 11  1  0  0  0  0
 10 13  2  0  0  0  0
 11 26  1  0  0  0  0
 12 14  2  0  0  0  0
 12 18  1  0  0  0  0
 14 15  1  0  0  0  0
 14 27  1  0  0  0  0
 15 16  2  0  0  0  0
 15 28  1  0  0  0  0
 16 17  1  0  0  0  0
 16 29  1  0  0  0  0
 17 18  2  0  0  0  0
 17 30  1  0  0  0  0
 18 21  1  0  0  0  0
 19 31  1  0  0  0  0
 19 32  1  0  0  0  0
 19 33  1  0  0  0  0
M  END
