Ro05-2750
 OpenBabel04201808233D
Structure written by MMmdl.
 30 32  0  0  0  0  0  0  0  0999 V2000
   -2.0829    2.5306   -0.2603 C   0  0  0  0  0  0  0  0  0  0  0  0
   -2.3813    1.2184    0.0854 C   0  0  0  0  0  0  0  0  0  0  0  0
   -1.3449    0.3197    0.3534 C   0  0  0  0  0  0  0  0  0  0  0  0
    0.0000    0.7333    0.2736 C   0  0  0  0  0  0  0  0  0  0  0  0
    0.2829    2.0930    0.0359 C   0  0  0  0  0  0  0  0  0  0  0  0
   -0.7619    2.9711   -0.2836 C   0  0  0  0  0  0  0  0  0  0  0  0
    1.1162   -0.2691    0.2949 C   0  0  0  0  0  0  0  0  0  0  0  0
    2.1935   -0.1640    1.0057 N   0  0  0  0  0  0  0  0  0  0  0  0
    2.3648    1.0465    1.8078 C   0  0  0  0  0  0  0  0  0  0  0  0
    2.6219    2.2257    0.8768 C   0  0  0  0  0  0  0  0  0  0  0  0
    1.5660    2.6691    0.1185 N   0  0  0  0  0  0  0  0  0  0  0  0
    1.0324   -1.4552   -0.6207 C   0  0  0  0  0  0  0  0  0  0  0  0
    3.7110    2.8077    0.8367 O   0  0  0  0  0  0  0  0  0  0  0  0
    0.5474   -1.3259   -1.9289 C   0  0  0  0  0  0  0  0  0  0  0  0
    0.4935   -2.4427   -2.7660 C   0  0  0  0  0  0  0  0  0  0  0  0
    0.9313   -3.6847   -2.3061 C   0  0  0  0  0  0  0  0  0  0  0  0
    1.4309   -3.8140   -1.0106 C   0  0  0  0  0  0  0  0  0  0  0  0
    1.4879   -2.7010   -0.1697 C   0  0  0  0  0  0  0  0  0  0  0  0
   -1.8118   -1.2759    0.8428 Cl  0  0  0  0  0  0  0  0  0  0  0  0
   -3.3580    3.6311   -0.6180 Cl  0  0  0  0  0  0  0  0  0  0  0  0
   -3.4173    0.8930    0.1407 H   0  0  0  0  0  0  0  0  0  0  0  0
   -0.5529    4.0155   -0.5073 H   0  0  0  0  0  0  0  0  0  0  0  0
    3.2437    0.9202    2.4489 H   0  0  0  0  0  0  0  0  0  0  0  0
    1.5137    1.2431    2.4694 H   0  0  0  0  0  0  0  0  0  0  0  0
    1.7156    3.5696   -0.3291 H   0  0  0  0  0  0  0  0  0  0  0  0
    0.2205   -0.3648   -2.3188 H   0  0  0  0  0  0  0  0  0  0  0  0
    0.1142   -2.3426   -3.7816 H   0  0  0  0  0  0  0  0  0  0  0  0
    0.8886   -4.5530   -2.9616 H   0  0  0  0  0  0  0  0  0  0  0  0
    1.7781   -4.7825   -0.6549 H   0  0  0  0  0  0  0  0  0  0  0  0
    1.8796   -2.8133    0.8394 H   0  0  0  0  0  0  0  0  0  0  0  0
  1  2  2  0  0  0  0
  1  6  1  0  0  0  0
  1 20  1  0  0  0  0
  2  3  1  0  0  0  0
  2 21  1  0  0  0  0
  3  4  2  0  0  0  0
  3 19  1  0  0  0  0
  4  5  1  0  0  0  0
  4  7  1  0  0  0  0
  5  6  2  0  0  0  0
  5 11  1  0  0  0  0
  6 22  1  0  0  0  0
  7  8  2  0  0  0  0
  7 12  1  0  0  0  0
  8  9  1  0  0  0  0
  9 10  1  0  0  0  0
  9 23  1  0  0  0  0
  9 24  1  0  0  0  0
 10 11  1  0  0  0  0
 10 13  2  0  0  0  0
 11 25  1  0  0  0  0
 12 14  2  0  0  0  0
 12 18  1  0  0  0  0
 14 15  1  0  0  0  0
 14 26  1  0  0  0  0
 15 16  2  0  0  0  0
 15 27  1  0  0  0  0
 16 17  1  0  0  0  0
 16 28  1  0  0  0  0
 17 18  2  0  0  0  0
 17 29  1  0  0  0  0
 18 30  1  0  0  0  0
M  END
