Pinazepam
 OpenBabel04201808233D
Structure written by MMmdl.
 35 37  0  0  0  0  0  0  0  0999 V2000
   -2.1461    2.4995   -0.1435 C   0  0  0  0  0  0  0  0  0  0  0  0
   -2.3631    1.1420    0.0396 C   0  0  0  0  0  0  0  0  0  0  0  0
   -1.2844    0.2825    0.2043 C   0  0  0  0  0  0  0  0  0  0  0  0
    0.0327    0.7827    0.1847 C   0  0  0  0  0  0  0  0  0  0  0  0
    0.2763    2.1685    0.0541 C   0  0  0  0  0  0  0  0  0  0  0  0
   -0.8409    3.0050   -0.1374 C   0  0  0  0  0  0  0  0  0  0  0  0
    1.1317   -0.2314    0.2467 C   0  0  0  0  0  0  0  0  0  0  0  0
    2.1658   -0.1406    1.0205 N   0  0  0  0  0  0  0  0  0  0  0  0
    2.2784    1.0794    1.8200 C   0  0  0  0  0  0  0  0  0  0  0  0
    2.6322    2.2271    0.8812 C   0  0  0  0  0  0  0  0  0  0  0  0
    1.5939    2.7466    0.1033 N   0  0  0  0  0  0  0  0  0  0  0  0
    1.0423   -1.4373   -0.6383 C   0  0  0  0  0  0  0  0  0  0  0  0
    3.7862    2.6732    0.8565 O   0  0  0  0  0  0  0  0  0  0  0  0
    0.5479   -1.3375   -1.9454 C   0  0  0  0  0  0  0  0  0  0  0  0
    0.4831   -2.4738   -2.7548 C   0  0  0  0  0  0  0  0  0  0  0  0
    0.9182   -3.7062   -2.2673 C   0  0  0  0  0  0  0  0  0  0  0  0
    1.4250   -3.8063   -0.9720 C   0  0  0  0  0  0  0  0  0  0  0  0
    1.4925   -2.6734   -0.1587 C   0  0  0  0  0  0  0  0  0  0  0  0
   -3.9672    0.5212    0.0505 Cl  0  0  0  0  0  0  0  0  0  0  0  0
    1.8815    3.9517   -0.6862 C   0  0  0  0  0  0  0  0  0  0  0  0
    1.9074    5.1569    0.1629 C   0  0  0  0  0  0  0  0  0  0  0  0
    1.9294    6.1368    0.8576 C   0  0  0  0  0  0  0  0  0  0  0  0
   -2.9829    3.1816   -0.2780 H   0  0  0  0  0  0  0  0  0  0  0  0
   -1.4690   -0.7813    0.3384 H   0  0  0  0  0  0  0  0  0  0  0  0
   -0.7392    4.0816   -0.2472 H   0  0  0  0  0  0  0  0  0  0  0  0
    3.1012    0.9555    2.5329 H   0  0  0  0  0  0  0  0  0  0  0  0
    1.3839    1.2966    2.4140 H   0  0  0  0  0  0  0  0  0  0  0  0
    0.2222   -0.3833   -2.3535 H   0  0  0  0  0  0  0  0  0  0  0  0
    0.0972   -2.3965   -3.7699 H   0  0  0  0  0  0  0  0  0  0  0  0
    0.8670   -4.5902   -2.9010 H   0  0  0  0  0  0  0  0  0  0  0  0
    1.7694   -4.7677   -0.5949 H   0  0  0  0  0  0  0  0  0  0  0  0
    1.8900   -2.7631    0.8505 H   0  0  0  0  0  0  0  0  0  0  0  0
    1.1196    4.0950   -1.4602 H   0  0  0  0  0  0  0  0  0  0  0  0
    2.8199    3.8196   -1.2330 H   0  0  0  0  0  0  0  0  0  0  0  0
    1.9493    7.0067    1.4755 H   0  0  0  0  0  0  0  0  0  0  0  0
  1  2  2  0  0  0  0
  1  6  1  0  0  0  0
  1 23  1  0  0  0  0
  2  3  1  0  0  0  0
  2 19  1  0  0  0  0
  3  4  2  0  0  0  0
  3 24  1  0  0  0  0
  4  5  1  0  0  0  0
  4  7  1  0  0  0  0
  5  6  2  0  0  0  0
  5 11  1  0  0  0  0
  6 25  1  0  0  0  0
  7  8  2  0  0  0  0
  7 12  1  0  0  0  0
  8  9  1  0  0  0  0
  9 10  1  0  0  0  0
  9 26  1  0  0  0  0
  9 27  1  0  0  0  0
 10 11  1  0  0  0  0
 10 13  2  0  0  0  0
 11 20  1  0  0  0  0
 12 14  2  0  0  0  0
 12 18  1  0  0  0  0
 14 15  1  0  0  0  0
 14 28  1  0  0  0  0
 15 16  2  0  0  0  0
 15 29  1  0  0  0  0
 16 17  1  0  0  0  0
 16 30  1  0  0  0  0
 17 18  2  0  0  0  0
 17 31  1  0  0  0  0
 18 32  1  0  0  0  0
 20 21  1  0  0  0  0
 20 33  1  0  0  0  0
 20 34  1  0  0  0  0
 21 22  3  0  0  0  0
 22 35  1  0  0  0  0
M  END
