Ro06-9098
 OpenBabel04201808233D
Structure written by MMmdl.
 39 41  0  0  0  0  0  0  0  0999 V2000
   -2.1448    2.5112   -0.1384 C   0  0  0  0  0  0  0  0  0  0  0  0
   -2.3687    1.1491    0.0565 C   0  0  0  0  0  0  0  0  0  0  0  0
   -1.2871    0.2795    0.2165 C   0  0  0  0  0  0  0  0  0  0  0  0
    0.0319    0.7778    0.1824 C   0  0  0  0  0  0  0  0  0  0  0  0
    0.2800    2.1623    0.0427 C   0  0  0  0  0  0  0  0  0  0  0  0
   -0.8339    3.0053   -0.1464 C   0  0  0  0  0  0  0  0  0  0  0  0
    1.1332   -0.2348    0.2402 C   0  0  0  0  0  0  0  0  0  0  0  0
    2.1708   -0.1396    1.0083 N   0  0  0  0  0  0  0  0  0  0  0  0
    2.2814    1.0771    1.8131 C   0  0  0  0  0  0  0  0  0  0  0  0
    2.6299    2.2329    0.8826 C   0  0  0  0  0  0  0  0  0  0  0  0
    1.5983    2.7355    0.0855 N   0  0  0  0  0  0  0  0  0  0  0  0
    1.0424   -1.4423   -0.6426 C   0  0  0  0  0  0  0  0  0  0  0  0
    3.7737    2.7051    0.8837 O   0  0  0  0  0  0  0  0  0  0  0  0
    0.5474   -1.3453   -1.9495 C   0  0  0  0  0  0  0  0  0  0  0  0
    0.4824   -2.4834   -2.7566 C   0  0  0  0  0  0  0  0  0  0  0  0
    0.9173   -3.7148   -2.2669 C   0  0  0  0  0  0  0  0  0  0  0  0
    1.4245   -3.8123   -0.9715 C   0  0  0  0  0  0  0  0  0  0  0  0
    1.4925   -2.6778   -0.1606 C   0  0  0  0  0  0  0  0  0  0  0  0
   -3.7414    0.6278    0.0834 N   0  3  0  0  0  0  0  0  0  0  0  0
   -3.9064   -0.5896    0.2879 O   0  0  0  0  0  0  0  0  0  0  0  0
   -4.6805    1.4254   -0.0986 O   0  5  0  0  0  0  0  0  0  0  0  0
    1.8769    3.9543   -0.6681 C   0  0  0  0  0  0  0  0  0  0  0  0
    1.9027    5.0591    0.2409 O   0  0  0  0  0  0  0  0  0  0  0  0
    2.2474    6.2640   -0.4382 C   0  0  0  0  0  0  0  0  0  0  0  0
   -2.9691    3.2088   -0.2719 H   0  0  0  0  0  0  0  0  0  0  0  0
   -1.4599   -0.7853    0.3593 H   0  0  0  0  0  0  0  0  0  0  0  0
   -0.7199    4.0800   -0.2695 H   0  0  0  0  0  0  0  0  0  0  0  0
    3.1054    0.9509    2.5242 H   0  0  0  0  0  0  0  0  0  0  0  0
    1.3872    1.2888    2.4096 H   0  0  0  0  0  0  0  0  0  0  0  0
    0.2223   -0.3921   -2.3601 H   0  0  0  0  0  0  0  0  0  0  0  0
    0.0961   -2.4081   -3.7718 H   0  0  0  0  0  0  0  0  0  0  0  0
    0.8661   -4.6001   -2.8989 H   0  0  0  0  0  0  0  0  0  0  0  0
    1.7689   -4.7730   -0.5925 H   0  0  0  0  0  0  0  0  0  0  0  0
    1.8905   -2.7656    0.8485 H   0  0  0  0  0  0  0  0  0  0  0  0
    1.1043    4.1428   -1.4208 H   0  0  0  0  0  0  0  0  0  0  0  0
    2.8330    3.8448   -1.1929 H   0  0  0  0  0  0  0  0  0  0  0  0
    2.2520    7.0783    0.2912 H   0  0  0  0  0  0  0  0  0  0  0  0
    1.5092    6.4917   -1.2130 H   0  0  0  0  0  0  0  0  0  0  0  0
    3.2462    6.1824   -0.8777 H   0  0  0  0  0  0  0  0  0  0  0  0
  1  2  2  0  0  0  0
  1  6  1  0  0  0  0
  1 25  1  0  0  0  0
  2  3  1  0  0  0  0
  2 19  1  0  0  0  0
  3  4  2  0  0  0  0
  3 26  1  0  0  0  0
  4  5  1  0  0  0  0
  4  7  1  0  0  0  0
  5  6  2  0  0  0  0
  5 11  1  0  0  0  0
  6 27  1  0  0  0  0
  7  8  2  0  0  0  0
  7 12  1  0  0  0  0
  8  9  1  0  0  0  0
  9 10  1  0  0  0  0
  9 28  1  0  0  0  0
  9 29  1  0  0  0  0
 10 11  1  0  0  0  0
 10 13  2  0  0  0  0
 11 22  1  0  0  0  0
 12 14  2  0  0  0  0
 12 18  1  0  0  0  0
 14 15  1  0  0  0  0
 14 30  1  0  0  0  0
 15 16  2  0  0  0  0
 15 31  1  0  0  0  0
 16 17  1  0  0  0  0
 16 32  1  0  0  0  0
 17 18  2  0  0  0  0
 17 33  1  0  0  0  0
 18 34  1  0  0  0  0
 19 20  2  0  0  0  0
 19 21  1  0  0  0  0
 22 23  1  0  0  0  0
 22 35  1  0  0  0  0
 22 36  1  0  0  0  0
 23 24  1  0  0  0  0
 24 37  1  0  0  0  0
 24 38  1  0  0  0  0
 24 39  1  0  0  0  0
M  CHG  2  19   1  21  -1
M  END
