Ro22-4683
 OpenBabel04201808233D
Structure written by MMmdl.
 44 46  0  0  0  0  0  0  0  0999 V2000
   -2.1187    2.5410    0.0388 C   0  0  0  0  0  0  0  0  0  0  0  0
   -2.3644    1.1696    0.1304 C   0  0  0  0  0  0  0  0  0  0  0  0
   -1.2980    0.2674    0.1911 C   0  0  0  0  0  0  0  0  0  0  0  0
    0.0233    0.7478    0.1413 C   0  0  0  0  0  0  0  0  0  0  0  0
    0.2928    2.1265    0.0099 C   0  0  0  0  0  0  0  0  0  0  0  0
   -0.7996    3.0082   -0.0103 C   0  0  0  0  0  0  0  0  0  0  0  0
    1.1282   -0.2456    0.2568 C   0  0  0  0  0  0  0  0  0  0  0  0
    2.1415   -0.1120    1.0518 N   0  0  0  0  0  0  0  0  0  0  0  0
    2.1778    1.1176    1.8591 C   0  0  0  0  0  0  0  0  0  0  0  0
    2.5645    2.2786    0.9436 C   0  0  0  0  0  0  0  0  0  0  0  0
    1.6324    2.6473   -0.0488 N   0  0  0  0  0  0  0  0  0  0  0  0
    1.0668   -1.4508   -0.6109 C   0  0  0  0  0  0  0  0  0  0  0  0
    3.6538    2.8395    1.1089 O   0  0  0  0  0  0  0  0  0  0  0  0
    1.4444   -2.6794   -0.0490 C   0  0  0  0  0  0  0  0  0  0  0  0
    1.3918   -3.8423   -0.8180 C   0  0  0  0  0  0  0  0  0  0  0  0
    0.9633   -3.7832   -2.1434 C   0  0  0  0  0  0  0  0  0  0  0  0
    0.5877   -2.5606   -2.7050 C   0  0  0  0  0  0  0  0  0  0  0  0
    0.6366   -1.3897   -1.9422 C   0  0  0  0  0  0  0  0  0  0  0  0
    0.2128    0.0952   -2.7179 Cl  0  0  0  0  0  0  0  0  0  0  0  0
    2.0184    3.6447   -1.1231 C   0  0  0  0  0  0  0  0  0  0  0  0
    3.4076    3.2757   -1.7170 C   0  0  0  0  0  0  0  0  0  0  0  0
    1.0773    3.6490   -2.3605 C   0  0  0  0  0  0  0  0  0  0  0  0
    2.0864    5.0723   -0.5496 C   0  0  0  0  0  0  0  0  0  0  0  0
   -3.7469    0.6760    0.1863 N   0  3  0  0  0  0  0  0  0  0  0  0
   -3.9314   -0.5535    0.2581 O   0  0  0  0  0  0  0  0  0  0  0  0
   -4.6735    1.5077    0.1583 O   0  5  0  0  0  0  0  0  0  0  0  0
   -2.9321    3.2633    0.0162 H   0  0  0  0  0  0  0  0  0  0  0  0
   -1.4885   -0.7974    0.2994 H   0  0  0  0  0  0  0  0  0  0  0  0
   -0.6495    4.0849   -0.0307 H   0  0  0  0  0  0  0  0  0  0  0  0
    2.9610    1.0041    2.6171 H   0  0  0  0  0  0  0  0  0  0  0  0
    1.2476    1.3147    2.4030 H   0  0  0  0  0  0  0  0  0  0  0  0
    1.7683   -2.7425    0.9880 H   0  0  0  0  0  0  0  0  0  0  0  0
    1.6823   -4.7969   -0.3820 H   0  0  0  0  0  0  0  0  0  0  0  0
    0.9232   -4.6912   -2.7430 H   0  0  0  0  0  0  0  0  0  0  0  0
    0.2634   -2.5303   -3.7433 H   0  0  0  0  0  0  0  0  0  0  0  0
    3.6474    3.8946   -2.5899 H   0  0  0  0  0  0  0  0  0  0  0  0
    3.4284    2.2262   -2.0331 H   0  0  0  0  0  0  0  0  0  0  0  0
    4.2284    3.4281   -1.0118 H   0  0  0  0  0  0  0  0  0  0  0  0
    1.5058    4.2391   -3.1802 H   0  0  0  0  0  0  0  0  0  0  0  0
    0.1055    4.1047   -2.1582 H   0  0  0  0  0  0  0  0  0  0  0  0
    0.9136    2.6340   -2.7403 H   0  0  0  0  0  0  0  0  0  0  0  0
    2.3640    5.7959   -1.3245 H   0  0  0  0  0  0  0  0  0  0  0  0
    2.8256    5.1545    0.2535 H   0  0  0  0  0  0  0  0  0  0  0  0
    1.1239    5.3847   -0.1336 H   0  0  0  0  0  0  0  0  0  0  0  0
  1  2  2  0  0  0  0
  1  6  1  0  0  0  0
  1 27  1  0  0  0  0
  2  3  1  0  0  0  0
  2 24  1  0  0  0  0
  3  4  2  0  0  0  0
  3 28  1  0  0  0  0
  4  5  1  0  0  0  0
  4  7  1  0  0  0  0
  5  6  2  0  0  0  0
  5 11  1  0  0  0  0
  6 29  1  0  0  0  0
  7  8  2  0  0  0  0
  7 12  1  0  0  0  0
  8  9  1  0  0  0  0
  9 10  1  0  0  0  0
  9 30  1  0  0  0  0
  9 31  1  0  0  0  0
 10 11  1  0  0  0  0
 10 13  2  0  0  0  0
 11 20  1  0  0  0  0
 12 14  2  0  0  0  0
 12 18  1  0  0  0  0
 14 15  1  0  0  0  0
 14 32  1  0  0  0  0
 15 16  2  0  0  0  0
 15 33  1  0  0  0  0
 16 17  1  0  0  0  0
 16 34  1  0  0  0  0
 17 18  2  0  0  0  0
 17 35  1  0  0  0  0
 18 19  1  0  0  0  0
 20 21  1  0  0  0  0
 20 22  1  0  0  0  0
 20 23  1  0  0  0  0
 21 36  1  0  0  0  0
 21 37  1  0  0  0  0
 21 38  1  0  0  0  0
 22 39  1  0  0  0  0
 22 40  1  0  0  0  0
 22 41  1  0  0  0  0
 23 42  1  0  0  0  0
 23 43  1  0  0  0  0
 23 44  1  0  0  0  0
 24 25  2  0  0  0  0
 24 26  1  0  0  0  0
M  CHG  2  24   1  26  -1
M  END
