Ro07-5096
 OpenBabel04201808233D
Structure written by MMmdl.
 36 38  0  0  0  0  0  0  0  0999 V2000
   -2.1394    2.4812   -0.1608 C   0  0  0  0  0  0  0  0  0  0  0  0
   -2.3506    1.1216    0.0125 C   0  0  0  0  0  0  0  0  0  0  0  0
   -1.2689    0.2667    0.1855 C   0  0  0  0  0  0  0  0  0  0  0  0
    0.0459    0.7734    0.1872 C   0  0  0  0  0  0  0  0  0  0  0  0
    0.2823    2.1613    0.0586 C   0  0  0  0  0  0  0  0  0  0  0  0
   -0.8372    2.9930   -0.1395 C   0  0  0  0  0  0  0  0  0  0  0  0
    1.1500   -0.2362    0.2510 C   0  0  0  0  0  0  0  0  0  0  0  0
    2.2019   -0.1340    0.9967 N   0  0  0  0  0  0  0  0  0  0  0  0
    2.3188    1.0776    1.8073 C   0  0  0  0  0  0  0  0  0  0  0  0
    2.6426    2.2408    0.8808 C   0  0  0  0  0  0  0  0  0  0  0  0
    1.5908    2.7490    0.1148 N   0  0  0  0  0  0  0  0  0  0  0  0
    1.0443   -1.4415   -0.6207 C   0  0  0  0  0  0  0  0  0  0  0  0
    3.7816    2.7237    0.8525 O   0  0  0  0  0  0  0  0  0  0  0  0
    1.4199   -2.6989   -0.1299 C   0  0  0  0  0  0  0  0  0  0  0  0
    1.3082   -3.8256   -0.9486 C   0  0  0  0  0  0  0  0  0  0  0  0
    0.8199   -3.7018   -2.2507 C   0  0  0  0  0  0  0  0  0  0  0  0
    0.4404   -2.4509   -2.7382 C   0  0  0  0  0  0  0  0  0  0  0  0
    0.5511   -1.3275   -1.9224 C   0  0  0  0  0  0  0  0  0  0  0  0
    0.2041   -0.1343   -2.4284 F   0  0  0  0  0  0  0  0  0  0  0  0
   -3.9513    0.4919    0.0013 Cl  0  0  0  0  0  0  0  0  0  0  0  0
    1.8637    3.9891   -0.6314 C   0  0  0  0  0  0  0  0  0  0  0  0
    1.9044    5.2591    0.2174 C   0  0  0  0  0  0  0  0  0  0  0  0
    1.7297    5.2973    1.4307 O   0  0  0  0  0  0  0  0  0  0  0  0
    2.1588    6.3920   -0.4743 O   0  0  0  0  0  0  0  0  0  0  0  0
   -2.9786    3.1595   -0.3000 H   0  0  0  0  0  0  0  0  0  0  0  0
   -1.4530   -0.7980    0.3124 H   0  0  0  0  0  0  0  0  0  0  0  0
   -0.7375    4.0709   -0.2411 H   0  0  0  0  0  0  0  0  0  0  0  0
    3.1545    0.9527    2.5045 H   0  0  0  0  0  0  0  0  0  0  0  0
    1.4316    1.2793    2.4178 H   0  0  0  0  0  0  0  0  0  0  0  0
    1.7883   -2.8177    0.8868 H   0  0  0  0  0  0  0  0  0  0  0  0
    1.5993   -4.8038   -0.5687 H   0  0  0  0  0  0  0  0  0  0  0  0
    0.7346   -4.5820   -2.8858 H   0  0  0  0  0  0  0  0  0  0  0  0
    0.0627   -2.3472   -3.7517 H   0  0  0  0  0  0  0  0  0  0  0  0
    1.1273    4.1155   -1.4317 H   0  0  0  0  0  0  0  0  0  0  0  0
    2.8478    3.8974   -1.1059 H   0  0  0  0  0  0  0  0  0  0  0  0
    2.1576    7.1218    0.1900 H   0  0  0  0  0  0  0  0  0  0  0  0
  1  2  2  0  0  0  0
  1  6  1  0  0  0  0
  1 25  1  0  0  0  0
  2  3  1  0  0  0  0
  2 20  1  0  0  0  0
  3  4  2  0  0  0  0
  3 26  1  0  0  0  0
  4  5  1  0  0  0  0
  4  7  1  0  0  0  0
  5  6  2  0  0  0  0
  5 11  1  0  0  0  0
  6 27  1  0  0  0  0
  7  8  2  0  0  0  0
  7 12  1  0  0  0  0
  8  9  1  0  0  0  0
  9 10  1  0  0  0  0
  9 28  1  0  0  0  0
  9 29  1  0  0  0  0
 10 11  1  0  0  0  0
 10 13  2  0  0  0  0
 11 21  1  0  0  0  0
 12 14  2  0  0  0  0
 12 18  1  0  0  0  0
 14 15  1  0  0  0  0
 14 30  1  0  0  0  0
 15 16  2  0  0  0  0
 15 31  1  0  0  0  0
 16 17  1  0  0  0  0
 16 32  1  0  0  0  0
 17 18  2  0  0  0  0
 17 33  1  0  0  0  0
 18 19  1  0  0  0  0
 21 22  1  0  0  0  0
 21 34  1  0  0  0  0
 21 35  1  0  0  0  0
 22 23  2  0  0  0  0
 22 24  1  0  0  0  0
 24 36  1  0  0  0  0
M  END
