Ro05-3663
 OpenBabel04201808233D
Structure written by MMmdl.
 23 24  0  0  0  0  0  0  0  0999 V2000
   -2.0866    2.5813   -0.2578 C   0  0  0  0  0  0  0  0  0  0  0  0
   -2.3354    1.2271   -0.0623 C   0  0  0  0  0  0  0  0  0  0  0  0
   -1.2754    0.3566    0.1924 C   0  0  0  0  0  0  0  0  0  0  0  0
    0.0423    0.8386    0.2724 C   0  0  0  0  0  0  0  0  0  0  0  0
    0.2865    2.2138    0.1346 C   0  0  0  0  0  0  0  0  0  0  0  0
   -0.7822    3.0702   -0.1683 C   0  0  0  0  0  0  0  0  0  0  0  0
    1.1476   -0.1556    0.3633 C   0  0  0  0  0  0  0  0  0  0  0  0
    2.2255   -0.0396    1.0578 N   0  0  0  0  0  0  0  0  0  0  0  0
    2.4172    1.1547    1.8715 C   0  0  0  0  0  0  0  0  0  0  0  0
    2.6118    2.3808    0.9991 C   0  0  0  0  0  0  0  0  0  0  0  0
    1.5470    2.8175    0.2571 N   0  0  0  0  0  0  0  0  0  0  0  0
    3.6475    3.0479    1.0126 O   0  0  0  0  0  0  0  0  0  0  0  0
   -2.9083    3.2614   -0.4709 H   0  0  0  0  0  0  0  0  0  0  0  0
   -1.4907   -0.7025    0.3166 H   0  0  0  0  0  0  0  0  0  0  0  0
   -0.6162    4.1366   -0.3055 H   0  0  0  0  0  0  0  0  0  0  0  0
    3.3232    1.0217    2.4729 H   0  0  0  0  0  0  0  0  0  0  0  0
    1.5935    1.3143    2.5769 H   0  0  0  0  0  0  0  0  0  0  0  0
   -3.3518    0.8453   -0.1256 H   0  0  0  0  0  0  0  0  0  0  0  0
    1.0077   -1.4302   -0.4455 C   0  0  0  0  0  0  0  0  0  0  0  0
    1.6845    3.7502   -0.1118 H   0  0  0  0  0  0  0  0  0  0  0  0
    1.9894   -1.7348   -0.8224 H   0  0  0  0  0  0  0  0  0  0  0  0
    0.6155   -2.2246    0.1960 H   0  0  0  0  0  0  0  0  0  0  0  0
    0.3474   -1.2910   -1.3054 H   0  0  0  0  0  0  0  0  0  0  0  0
  1  2  2  0  0  0  0
  1  6  1  0  0  0  0
  1 13  1  0  0  0  0
  2  3  1  0  0  0  0
  2 18  1  0  0  0  0
  3  4  2  0  0  0  0
  3 14  1  0  0  0  0
  4  5  1  0  0  0  0
  4  7  1  0  0  0  0
  5  6  2  0  0  0  0
  5 11  1  0  0  0  0
  6 15  1  0  0  0  0
  7  8  2  0  0  0  0
  7 19  1  0  0  0  0
  8  9  1  0  0  0  0
  9 10  1  0  0  0  0
  9 16  1  0  0  0  0
  9 17  1  0  0  0  0
 10 11  1  0  0  0  0
 10 12  2  0  0  0  0
 11 20  1  0  0  0  0
 19 21  1  0  0  0  0
 19 22  1  0  0  0  0
 19 23  1  0  0  0  0
M  END
