Tetrazepam
 OpenBabel04201808233D
Structure written by MMmdl.
 37 39  0  0  0  0  0  0  0  0999 V2000
   -2.1350    2.5010   -0.1525 C   0  0  0  0  0  0  0  0  0  0  0  0
   -2.3553    1.1431    0.0277 C   0  0  0  0  0  0  0  0  0  0  0  0
   -1.2796    0.2793    0.1942 C   0  0  0  0  0  0  0  0  0  0  0  0
    0.0394    0.7746    0.1797 C   0  0  0  0  0  0  0  0  0  0  0  0
    0.2836    2.1593    0.0512 C   0  0  0  0  0  0  0  0  0  0  0  0
   -0.8287    3.0017   -0.1425 C   0  0  0  0  0  0  0  0  0  0  0  0
    1.1421   -0.2349    0.2379 C   0  0  0  0  0  0  0  0  0  0  0  0
    2.1901   -0.1452    0.9928 N   0  0  0  0  0  0  0  0  0  0  0  0
    2.3089    1.0678    1.8018 C   0  0  0  0  0  0  0  0  0  0  0  0
    2.6398    2.2344    0.8794 C   0  0  0  0  0  0  0  0  0  0  0  0
    1.5940    2.7413    0.1037 N   0  0  0  0  0  0  0  0  0  0  0  0
    1.0094   -1.4447   -0.6470 C   0  0  0  0  0  0  0  0  0  0  0  0
    3.7783    2.7194    0.8700 O   0  0  0  0  0  0  0  0  0  0  0  0
   -3.9611    0.5260    0.0314 Cl  0  0  0  0  0  0  0  0  0  0  0  0
    0.5518   -1.3146   -1.9063 C   0  0  0  0  0  0  0  0  0  0  0  0
    0.3823   -2.4767   -2.8426 C   0  0  0  0  0  0  0  0  0  0  0  0
    0.4810   -3.8332   -2.1439 C   0  0  0  0  0  0  0  0  0  0  0  0
    1.6326   -3.8533   -1.1449 C   0  0  0  0  0  0  0  0  0  0  0  0
    1.4638   -2.7655   -0.0795 C   0  0  0  0  0  0  0  0  0  0  0  0
    1.8353    3.9825   -0.6292 C   0  0  0  0  0  0  0  0  0  0  0  0
   -2.9695    3.1855   -0.2884 H   0  0  0  0  0  0  0  0  0  0  0  0
   -1.4674   -0.7844    0.3228 H   0  0  0  0  0  0  0  0  0  0  0  0
   -0.7126    4.0784   -0.2509 H   0  0  0  0  0  0  0  0  0  0  0  0
    3.1425    0.9393    2.5012 H   0  0  0  0  0  0  0  0  0  0  0  0
    1.4215    1.2716    2.4114 H   0  0  0  0  0  0  0  0  0  0  0  0
    0.2871   -0.3406   -2.3131 H   0  0  0  0  0  0  0  0  0  0  0  0
    1.1498   -2.4054   -3.6225 H   0  0  0  0  0  0  0  0  0  0  0  0
   -0.5907   -2.4022   -3.3414 H   0  0  0  0  0  0  0  0  0  0  0  0
    0.6149   -4.6240   -2.8905 H   0  0  0  0  0  0  0  0  0  0  0  0
   -0.4592   -4.0464   -1.6192 H   0  0  0  0  0  0  0  0  0  0  0  0
    2.5795   -3.7006   -1.6784 H   0  0  0  0  0  0  0  0  0  0  0  0
    1.6947   -4.8349   -0.6616 H   0  0  0  0  0  0  0  0  0  0  0  0
    0.7210   -3.0950    0.6578 H   0  0  0  0  0  0  0  0  0  0  0  0
    2.4165   -2.6584    0.4513 H   0  0  0  0  0  0  0  0  0  0  0  0
    2.9034    4.1307   -0.8146 H   0  0  0  0  0  0  0  0  0  0  0  0
    1.4763    4.8254   -0.0306 H   0  0  0  0  0  0  0  0  0  0  0  0
    1.3301    3.9554   -1.5999 H   0  0  0  0  0  0  0  0  0  0  0  0
  1  2  2  0  0  0  0
  1  6  1  0  0  0  0
  1 21  1  0  0  0  0
  2  3  1  0  0  0  0
  2 14  1  0  0  0  0
  3  4  2  0  0  0  0
  3 22  1  0  0  0  0
  4  5  1  0  0  0  0
  4  7  1  0  0  0  0
  5  6  2  0  0  0  0
  5 11  1  0  0  0  0
  6 23  1  0  0  0  0
  7  8  2  0  0  0  0
  7 12  1  0  0  0  0
  8  9  1  0  0  0  0
  9 10  1  0  0  0  0
  9 24  1  0  0  0  0
  9 25  1  0  0  0  0
 10 11  1  0  0  0  0
 10 13  2  0  0  0  0
 11 20  1  0  0  0  0
 12 15  2  0  0  0  0
 12 19  1  0  0  0  0
 15 16  1  0  0  0  0
 15 26  1  0  0  0  0
 16 17  1  0  0  0  0
 16 27  1  0  0  0  0
 16 28  1  0  0  0  0
 17 18  1  0  0  0  0
 17 29  1  0  0  0  0
 17 30  1  0  0  0  0
 18 19  1  0  0  0  0
 18 31  1  0  0  0  0
 18 32  1  0  0  0  0
 19 33  1  0  0  0  0
 19 34  1  0  0  0  0
 20 35  1  0  0  0  0
 20 36  1  0  0  0  0
 20 37  1  0  0  0  0
M  END
