Bromazepam
 OpenBabel04201808233D
Structure written by MMmdl.
 29 31  0  0  0  0  0  0  0  0999 V2000
   -2.0995    2.5006   -0.2151 C   0  0  0  0  0  0  0  0  0  0  0  0
   -2.3360    1.1423   -0.0354 C   0  0  0  0  0  0  0  0  0  0  0  0
   -1.2745    0.2625    0.1672 C   0  0  0  0  0  0  0  0  0  0  0  0
    0.0468    0.7443    0.2002 C   0  0  0  0  0  0  0  0  0  0  0  0
    0.2843    2.1264    0.0980 C   0  0  0  0  0  0  0  0  0  0  0  0
   -0.7926    2.9884   -0.1534 C   0  0  0  0  0  0  0  0  0  0  0  0
    1.1624   -0.2578    0.2168 C   0  0  0  0  0  0  0  0  0  0  0  0
    2.2460   -0.1573    0.9215 N   0  0  0  0  0  0  0  0  0  0  0  0
    2.4057    1.0178    1.7759 C   0  0  0  0  0  0  0  0  0  0  0  0
    2.6269    2.2547    0.9178 C   0  0  0  0  0  0  0  0  0  0  0  0
    1.5455    2.7342    0.2242 N   0  0  0  0  0  0  0  0  0  0  0  0
    1.0286   -1.4636   -0.6740 C   0  0  0  0  0  0  0  0  0  0  0  0
    3.7076    2.8527    0.8895 O   0  0  0  0  0  0  0  0  0  0  0  0
   -4.1060    0.4811   -0.0971 Br  0  0  0  0  0  0  0  0  0  0  0  0
    1.4241   -2.7241   -0.2391 C   0  0  0  0  0  0  0  0  0  0  0  0
    1.2646   -3.7989   -1.1090 C   0  0  0  0  0  0  0  0  0  0  0  0
    0.7137   -3.5842   -2.3683 C   0  0  0  0  0  0  0  0  0  0  0  0
    0.3356   -2.2968   -2.7132 C   0  0  0  0  0  0  0  0  0  0  0  0
    0.4756   -1.2280   -1.8952 N   0  0  0  0  0  0  0  0  0  0  0  0
   -2.9203    3.1930   -0.3893 H   0  0  0  0  0  0  0  0  0  0  0  0
   -1.4773   -0.8003    0.2821 H   0  0  0  0  0  0  0  0  0  0  0  0
   -0.6313    4.0595   -0.2674 H   0  0  0  0  0  0  0  0  0  0  0  0
    3.2939    0.8755    2.4012 H   0  0  0  0  0  0  0  0  0  0  0  0
    1.5597    1.1596    2.4581 H   0  0  0  0  0  0  0  0  0  0  0  0
    1.6623    3.6712   -0.1522 H   0  0  0  0  0  0  0  0  0  0  0  0
    1.8357   -2.8840    0.7520 H   0  0  0  0  0  0  0  0  0  0  0  0
    1.5635   -4.7998   -0.8050 H   0  0  0  0  0  0  0  0  0  0  0  0
    0.5767   -4.4049   -3.0661 H   0  0  0  0  0  0  0  0  0  0  0  0
   -0.1033   -2.0923   -3.6875 H   0  0  0  0  0  0  0  0  0  0  0  0
  1  2  2  0  0  0  0
  1  6  1  0  0  0  0
  1 20  1  0  0  0  0
  2  3  1  0  0  0  0
  2 14  1  0  0  0  0
  3  4  2  0  0  0  0
  3 21  1  0  0  0  0
  4  5  1  0  0  0  0
  4  7  1  0  0  0  0
  5  6  2  0  0  0  0
  5 11  1  0  0  0  0
  6 22  1  0  0  0  0
  7  8  2  0  0  0  0
  7 12  1  0  0  0  0
  8  9  1  0  0  0  0
  9 10  1  0  0  0  0
  9 23  1  0  0  0  0
  9 24  1  0  0  0  0
 10 11  1  0  0  0  0
 10 13  2  0  0  0  0
 11 25  1  0  0  0  0
 12 15  2  0  0  0  0
 12 19  1  0  0  0  0
 15 16  1  0  0  0  0
 15 26  1  0  0  0  0
 16 17  2  0  0  0  0
 16 27  1  0  0  0  0
 17 18  1  0  0  0  0
 17 28  1  0  0  0  0
 18 19  2  0  0  0  0
 18 29  1  0  0  0  0
M  END
