Ro11-4878
 OpenBabel04201808233D
Structure written by MMmdl.
 33 35  0  0  0  0  0  0  0  0999 V2000
   -2.1068    2.5039   -0.1802 C   0  0  0  0  0  0  0  0  0  0  0  0
   -2.3386    1.1439   -0.0082 C   0  0  0  0  0  0  0  0  0  0  0  0
   -1.2738    0.2670    0.1854 C   0  0  0  0  0  0  0  0  0  0  0  0
    0.0453    0.7536    0.2157 C   0  0  0  0  0  0  0  0  0  0  0  0
    0.2797    2.1360    0.1172 C   0  0  0  0  0  0  0  0  0  0  0  0
   -0.8012    2.9962   -0.1231 C   0  0  0  0  0  0  0  0  0  0  0  0
    1.1617   -0.2436    0.2251 C   0  0  0  0  0  0  0  0  0  0  0  0
    2.2475   -0.1440    0.9200 N   0  0  0  0  0  0  0  0  0  0  0  0
    2.4259    1.0275    1.7828 C   0  0  2  0  0  0  0  0  0  0  0  0
    2.6371    2.2718    0.9083 C   0  0  0  0  0  0  0  0  0  0  0  0
    1.5409    2.7452    0.2307 N   0  0  0  0  0  0  0  0  0  0  0  0
    1.0372   -1.4541   -0.6416 C   0  0  0  0  0  0  0  0  0  0  0  0
    3.7068    2.8868    0.8480 O   0  0  0  0  0  0  0  0  0  0  0  0
   -3.9480    0.5366   -0.0623 Cl  0  0  0  0  0  0  0  0  0  0  0  0
    1.4729   -2.6922   -0.1535 C   0  0  0  0  0  0  0  0  0  0  0  0
    1.3687   -3.8328   -0.9539 C   0  0  0  0  0  0  0  0  0  0  0  0
    0.8415   -3.7390   -2.2431 C   0  0  0  0  0  0  0  0  0  0  0  0
    0.4230   -2.5036   -2.7383 C   0  0  0  0  0  0  0  0  0  0  0  0
    0.5269   -1.3677   -1.9394 C   0  0  0  0  0  0  0  0  0  0  0  0
    0.1451   -0.1884   -2.4527 F   0  0  0  0  0  0  0  0  0  0  0  0
    3.6405    0.7606    2.6660 C   0  0  0  0  0  0  0  0  0  0  0  0
   -2.9328    3.1918   -0.3467 H   0  0  0  0  0  0  0  0  0  0  0  0
   -1.4754   -0.7962    0.2933 H   0  0  0  0  0  0  0  0  0  0  0  0
   -0.6439    4.0682   -0.2337 H   0  0  0  0  0  0  0  0  0  0  0  0
    1.5610    1.1806    2.4403 H   0  0  0  0  0  0  0  0  0  0  0  0
    1.6508    3.6818   -0.1489 H   0  0  0  0  0  0  0  0  0  0  0  0
    1.8864   -2.7759    0.8496 H   0  0  0  0  0  0  0  0  0  0  0  0
    1.7011   -4.7965   -0.5713 H   0  0  0  0  0  0  0  0  0  0  0  0
    0.7630   -4.6294   -2.8650 H   0  0  0  0  0  0  0  0  0  0  0  0
    0.0226   -2.4217   -3.7451 H   0  0  0  0  0  0  0  0  0  0  0  0
    3.8382    1.6113    3.3268 H   0  0  0  0  0  0  0  0  0  0  0  0
    4.5413    0.5850    2.0666 H   0  0  0  0  0  0  0  0  0  0  0  0
    3.4795   -0.1264    3.2882 H   0  0  0  0  0  0  0  0  0  0  0  0
  1  2  2  0  0  0  0
  1  6  1  0  0  0  0
  1 22  1  0  0  0  0
  2  3  1  0  0  0  0
  2 14  1  0  0  0  0
  3  4  2  0  0  0  0
  3 23  1  0  0  0  0
  4  5  1  0  0  0  0
  4  7  1  0  0  0  0
  5  6  2  0  0  0  0
  5 11  1  0  0  0  0
  6 24  1  0  0  0  0
  7  8  2  0  0  0  0
  7 12  1  0  0  0  0
  8  9  1  0  0  0  0
  9 10  1  0  0  0  0
  9 21  1  0  0  0  0
  9 25  1  1  0  0  0
 10 11  1  0  0  0  0
 10 13  2  0  0  0  0
 11 26  1  0  0  0  0
 12 15  2  0  0  0  0
 12 19  1  0  0  0  0
 15 16  1  0  0  0  0
 15 27  1  0  0  0  0
 16 17  2  0  0  0  0
 16 28  1  0  0  0  0
 17 18  1  0  0  0  0
 17 29  1  0  0  0  0
 18 19  2  0  0  0  0
 18 30  1  0  0  0  0
 19 20  1  0  0  0  0
 21 31  1  0  0  0  0
 21 32  1  0  0  0  0
 21 33  1  0  0  0  0
M  END
