Ro11-6896
 OpenBabel04201808233D
Structure written by MMmdl.
 38 40  0  0  0  0  0  0  0  0999 V2000
   -2.1361    2.5178   -0.1450 C   0  0  0  0  0  0  0  0  0  0  0  0
   -2.3650    1.1547    0.0399 C   0  0  0  0  0  0  0  0  0  0  0  0
   -1.2877    0.2791    0.2033 C   0  0  0  0  0  0  0  0  0  0  0  0
    0.0325    0.7736    0.1818 C   0  0  0  0  0  0  0  0  0  0  0  0
    0.2838    2.1566    0.0490 C   0  0  0  0  0  0  0  0  0  0  0  0
   -0.8238    3.0067   -0.1417 C   0  0  0  0  0  0  0  0  0  0  0  0
    1.1337   -0.2364    0.2345 C   0  0  0  0  0  0  0  0  0  0  0  0
    2.1724   -0.1442    0.9998 N   0  0  0  0  0  0  0  0  0  0  0  0
    2.2968    1.0630    1.8249 C   0  0  2  0  0  0  0  0  0  0  0  0
    2.6413    2.2352    0.8888 C   0  0  0  0  0  0  0  0  0  0  0  0
    1.5977    2.7294    0.0956 N   0  0  0  0  0  0  0  0  0  0  0  0
    1.0418   -1.4420   -0.6425 C   0  0  0  0  0  0  0  0  0  0  0  0
    3.7716    2.7385    0.8732 O   0  0  0  0  0  0  0  0  0  0  0  0
    1.4914   -2.6769   -0.1583 C   0  0  0  0  0  0  0  0  0  0  0  0
    1.4188   -3.8129   -0.9687 C   0  0  0  0  0  0  0  0  0  0  0  0
    0.9089   -3.7184   -2.2646 C   0  0  0  0  0  0  0  0  0  0  0  0
    0.4759   -2.4869   -2.7560 C   0  0  0  0  0  0  0  0  0  0  0  0
    0.5482   -1.3556   -1.9470 C   0  0  0  0  0  0  0  0  0  0  0  0
    0.1532   -0.1797   -2.4582 F   0  0  0  0  0  0  0  0  0  0  0  0
   -3.7397    0.6379    0.0528 N   0  3  0  0  0  0  0  0  0  0  0  0
   -3.9060   -0.5933    0.1384 O   0  0  0  0  0  0  0  0  0  0  0  0
   -4.6785    1.4529   -0.0222 O   0  5  0  0  0  0  0  0  0  0  0  0
    1.8458    3.9586   -0.6560 C   0  0  0  0  0  0  0  0  0  0  0  0
    3.4112    0.8095    2.8359 C   0  0  0  0  0  0  0  0  0  0  0  0
   -2.9572    3.2188   -0.2801 H   0  0  0  0  0  0  0  0  0  0  0  0
   -1.4666   -0.7850    0.3418 H   0  0  0  0  0  0  0  0  0  0  0  0
   -0.6985    4.0824   -0.2521 H   0  0  0  0  0  0  0  0  0  0  0  0
    1.3825    1.2810    2.3897 H   0  0  0  0  0  0  0  0  0  0  0  0
    1.8917   -2.7626    0.8500 H   0  0  0  0  0  0  0  0  0  0  0  0
    1.7623   -4.7738   -0.5884 H   0  0  0  0  0  0  0  0  0  0  0  0
    0.8551   -4.6051   -2.8943 H   0  0  0  0  0  0  0  0  0  0  0  0
    0.0887   -2.4038   -3.7679 H   0  0  0  0  0  0  0  0  0  0  0  0
    2.9130    4.0882   -0.8597 H   0  0  0  0  0  0  0  0  0  0  0  0
    1.5083    4.8135   -0.0618 H   0  0  0  0  0  0  0  0  0  0  0  0
    1.3262    3.9285   -1.6190 H   0  0  0  0  0  0  0  0  0  0  0  0
    3.5802    1.6931    3.4603 H   0  0  0  0  0  0  0  0  0  0  0  0
    4.3570    0.5628    2.3397 H   0  0  0  0  0  0  0  0  0  0  0  0
    3.1544   -0.0298    3.4913 H   0  0  0  0  0  0  0  0  0  0  0  0
  1  2  2  0  0  0  0
  1  6  1  0  0  0  0
  1 25  1  0  0  0  0
  2  3  1  0  0  0  0
  2 20  1  0  0  0  0
  3  4  2  0  0  0  0
  3 26  1  0  0  0  0
  4  5  1  0  0  0  0
  4  7  1  0  0  0  0
  5  6  2  0  0  0  0
  5 11  1  0  0  0  0
  6 27  1  0  0  0  0
  7  8  2  0  0  0  0
  7 12  1  0  0  0  0
  8  9  1  0  0  0  0
  9 10  1  0  0  0  0
  9 24  1  0  0  0  0
  9 28  1  1  0  0  0
 10 11  1  0  0  0  0
 10 13  2  0  0  0  0
 11 23  1  0  0  0  0
 12 14  2  0  0  0  0
 12 18  1  0  0  0  0
 14 15  1  0  0  0  0
 14 29  1  0  0  0  0
 15 16  2  0  0  0  0
 15 30  1  0  0  0  0
 16 17  1  0  0  0  0
 16 31  1  0  0  0  0
 17 18  2  0  0  0  0
 17 32  1  0  0  0  0
 18 19  1  0  0  0  0
 20 21  2  0  0  0  0
 20 22  1  0  0  0  0
 23 33  1  0  0  0  0
 23 34  1  0  0  0  0
 23 35  1  0  0  0  0
 24 36  1  0  0  0  0
 24 37  1  0  0  0  0
 24 38  1  0  0  0  0
M  CHG  2  20   1  22  -1
M  END
