Ro06-7263
 OpenBabel04201808233D
Structure written by MMmdl.
 33 35  0  0  0  0  0  0  0  0999 V2000
   -2.1415    2.5057   -0.1474 C   0  0  0  0  0  0  0  0  0  0  0  0
   -2.3624    1.1472    0.0257 C   0  0  0  0  0  0  0  0  0  0  0  0
   -1.2864    0.2828    0.1908 C   0  0  0  0  0  0  0  0  0  0  0  0
    0.0324    0.7786    0.1817 C   0  0  0  0  0  0  0  0  0  0  0  0
    0.2788    2.1623    0.0617 C   0  0  0  0  0  0  0  0  0  0  0  0
   -0.8349    3.0057   -0.1306 C   0  0  0  0  0  0  0  0  0  0  0  0
    1.1321   -0.2329    0.2369 C   0  0  0  0  0  0  0  0  0  0  0  0
    2.1745   -0.1365    0.9961 N   0  0  0  0  0  0  0  0  0  0  0  0
    2.3096    1.0693    1.8192 C   0  0  2  0  0  0  0  0  0  0  0  0
    2.6547    2.2342    0.8804 C   0  0  0  0  0  0  0  0  0  0  0  0
    1.5862    2.7358    0.1296 N   0  0  0  0  0  0  0  0  0  0  0  0
    1.0386   -1.4434   -0.6417 C   0  0  0  0  0  0  0  0  0  0  0  0
    3.7983    2.7097    0.8350 O   0  0  0  0  0  0  0  0  0  0  0  0
    1.4886   -2.6770   -0.1551 C   0  0  0  0  0  0  0  0  0  0  0  0
    1.4187   -3.8149   -0.9612 C   0  0  0  0  0  0  0  0  0  0  0  0
    0.9100   -3.7223   -2.2563 C   0  0  0  0  0  0  0  0  0  0  0  0
    0.4753   -2.4924   -2.7506 C   0  0  0  0  0  0  0  0  0  0  0  0
    0.5424   -1.3512   -1.9484 C   0  0  0  0  0  0  0  0  0  0  0  0
   -3.9683    0.5306    0.0239 Cl  0  0  0  0  0  0  0  0  0  0  0  0
    1.9021    4.1945   -0.7273 Cl  0  0  0  0  0  0  0  0  0  0  0  0
    3.4287    0.8111    2.8236 C   0  0  0  0  0  0  0  0  0  0  0  0
   -2.9754    3.1913   -0.2810 H   0  0  0  0  0  0  0  0  0  0  0  0
   -1.4756   -0.7812    0.3166 H   0  0  0  0  0  0  0  0  0  0  0  0
   -0.7184    4.0836   -0.2283 H   0  0  0  0  0  0  0  0  0  0  0  0
    1.3997    1.2916    2.3896 H   0  0  0  0  0  0  0  0  0  0  0  0
    1.8879   -2.7607    0.8537 H   0  0  0  0  0  0  0  0  0  0  0  0
    1.7629   -4.7742   -0.5787 H   0  0  0  0  0  0  0  0  0  0  0  0
    0.8570   -4.6101   -2.8846 H   0  0  0  0  0  0  0  0  0  0  0  0
    0.0876   -2.4212   -3.7655 H   0  0  0  0  0  0  0  0  0  0  0  0
    0.2162   -0.3997   -2.3625 H   0  0  0  0  0  0  0  0  0  0  0  0
    3.6084    1.6956    3.4437 H   0  0  0  0  0  0  0  0  0  0  0  0
    4.3694    0.5552    2.3225 H   0  0  0  0  0  0  0  0  0  0  0  0
    3.1698   -0.0239    3.4836 H   0  0  0  0  0  0  0  0  0  0  0  0
  1  2  2  0  0  0  0
  1  6  1  0  0  0  0
  1 22  1  0  0  0  0
  2  3  1  0  0  0  0
  2 19  1  0  0  0  0
  3  4  2  0  0  0  0
  3 23  1  0  0  0  0
  4  5  1  0  0  0  0
  4  7  1  0  0  0  0
  5  6  2  0  0  0  0
  5 11  1  0  0  0  0
  6 24  1  0  0  0  0
  7  8  2  0  0  0  0
  7 12  1  0  0  0  0
  8  9  1  0  0  0  0
  9 10  1  0  0  0  0
  9 21  1  0  0  0  0
  9 25  1  1  0  0  0
 10 11  1  0  0  0  0
 10 13  2  0  0  0  0
 11 20  1  0  0  0  0
 12 14  2  0  0  0  0
 12 18  1  0  0  0  0
 14 15  1  0  0  0  0
 14 26  1  0  0  0  0
 15 16  2  0  0  0  0
 15 27  1  0  0  0  0
 16 17  1  0  0  0  0
 16 28  1  0  0  0  0
 17 18  2  0  0  0  0
 17 29  1  0  0  0  0
 18 30  1  0  0  0  0
 21 31  1  0  0  0  0
 21 32  1  0  0  0  0
 21 33  1  0  0  0  0
M  END
