Ro11-8125
 OpenBabel04201808233D
Structure written by MMmdl.
 27 29  0  0  0  0  0  0  0  0999 V2000
    0.2680    2.0157    0.2415 C   0  0  0  0  0  0  0  0  0  0  0  0
    0.1270    0.6460    0.1664 C   0  0  0  0  0  0  0  0  0  0  0  0
    1.2418   -0.3014    0.1723 C   0  0  0  0  0  0  0  0  0  0  0  0
    2.3622   -0.1177    0.7862 N   0  0  0  0  0  0  0  0  0  0  0  0
    2.5117    1.0218    1.6936 C   0  0  0  0  0  0  0  0  0  0  0  0
    2.5447    2.3591    0.9647 C   0  0  0  0  0  0  0  0  0  0  0  0
    1.3663    2.8119    0.4343 N   0  0  0  0  0  0  0  0  0  0  0  0
   -1.1707    2.8747   -0.0230 S   0  0  0  0  0  0  0  0  0  0  0  0
   -2.0718    1.4286   -0.1312 C   0  0  0  0  0  0  0  0  0  0  0  0
   -1.2633    0.3168   -0.0294 C   0  0  0  0  0  0  0  0  0  0  0  0
    3.5614    3.0615    0.9329 O   0  0  0  0  0  0  0  0  0  0  0  0
    1.0796   -1.5317   -0.6357 C   0  0  0  0  0  0  0  0  0  0  0  0
    1.5762   -2.7359   -0.1170 C   0  0  0  0  0  0  0  0  0  0  0  0
    1.4327   -3.9160   -0.8468 C   0  0  0  0  0  0  0  0  0  0  0  0
    0.7953   -3.8955   -2.0874 C   0  0  0  0  0  0  0  0  0  0  0  0
    0.3001   -2.6950   -2.6034 C   0  0  0  0  0  0  0  0  0  0  0  0
    0.4391   -1.5079   -1.8792 C   0  0  0  0  0  0  0  0  0  0  0  0
   -0.1587   -0.0490   -2.5854 Cl  0  0  0  0  0  0  0  0  0  0  0  0
    3.4643    0.9095    2.2238 H   0  0  0  0  0  0  0  0  0  0  0  0
    1.7315    1.0295    2.4645 H   0  0  0  0  0  0  0  0  0  0  0  0
    1.3042    3.7907    0.1750 H   0  0  0  0  0  0  0  0  0  0  0  0
   -3.1426    1.4561   -0.2894 H   0  0  0  0  0  0  0  0  0  0  0  0
   -1.6538   -0.6918   -0.1151 H   0  0  0  0  0  0  0  0  0  0  0  0
    2.0687   -2.7612    0.8530 H   0  0  0  0  0  0  0  0  0  0  0  0
    1.8165   -4.8535   -0.4476 H   0  0  0  0  0  0  0  0  0  0  0  0
    0.6842   -4.8173   -2.6565 H   0  0  0  0  0  0  0  0  0  0  0  0
   -0.1899   -2.6957   -3.5751 H   0  0  0  0  0  0  0  0  0  0  0  0
  1  2  2  0  0  0  0
  1  7  1  0  0  0  0
  1  8  1  0  0  0  0
  2  3  1  0  0  0  0
  2 10  1  0  0  0  0
  3  4  2  0  0  0  0
  3 12  1  0  0  0  0
  4  5  1  0  0  0  0
  5  6  1  0  0  0  0
  5 19  1  0  0  0  0
  5 20  1  0  0  0  0
  6  7  1  0  0  0  0
  6 11  2  0  0  0  0
  7 21  1  0  0  0  0
  8  9  1  0  0  0  0
  9 10  2  0  0  0  0
  9 22  1  0  0  0  0
 10 23  1  0  0  0  0
 12 13  2  0  0  0  0
 12 17  1  0  0  0  0
 13 14  1  0  0  0  0
 13 24  1  0  0  0  0
 14 15  2  0  0  0  0
 14 25  1  0  0  0  0
 15 16  1  0  0  0  0
 15 26  1  0  0  0  0
 16 17  2  0  0  0  0
 16 27  1  0  0  0  0
 17 18  1  0  0  0  0
M  END
