Ro10-2643
 OpenBabel04201808233D
Structure written by MMmdl.
 27 29  0  0  0  0  0  0  0  0999 V2000
    0.3456    2.2028    0.1177 C   0  0  0  0  0  0  0  0  0  0  0  0
    0.1825    0.8259    0.0651 C   0  0  0  0  0  0  0  0  0  0  0  0
    1.2000   -0.2128    0.1694 C   0  0  0  0  0  0  0  0  0  0  0  0
    2.2827   -0.1207    0.8713 N   0  0  0  0  0  0  0  0  0  0  0  0
    2.4451    1.0352    1.7574 C   0  0  0  0  0  0  0  0  0  0  0  0
    2.6379    2.3368    0.9904 C   0  0  0  0  0  0  0  0  0  0  0  0
    1.5366    2.8663    0.3679 N   0  0  0  0  0  0  0  0  0  0  0  0
   -0.8598    2.8978   -0.2093 C   0  0  0  0  0  0  0  0  0  0  0  0
   -1.9013    2.0310   -0.3999 C   0  0  0  0  0  0  0  0  0  0  0  0
   -1.4613    0.4106   -0.2421 S   0  0  0  0  0  0  0  0  0  0  0  0
    1.0363   -1.4476   -0.6403 C   0  0  0  0  0  0  0  0  0  0  0  0
    1.4089   -2.6702   -0.0639 C   0  0  0  0  0  0  0  0  0  0  0  0
    1.2606   -3.8514   -0.7907 C   0  0  0  0  0  0  0  0  0  0  0  0
    0.7407   -3.8137   -2.0846 C   0  0  0  0  0  0  0  0  0  0  0  0
    0.3671   -2.5949   -2.6572 C   0  0  0  0  0  0  0  0  0  0  0  0
    0.5118   -1.4064   -1.9367 C   0  0  0  0  0  0  0  0  0  0  0  0
    0.0654    0.0737   -2.7075 Cl  0  0  0  0  0  0  0  0  0  0  0  0
    3.7122    2.9481    0.9981 O   0  0  0  0  0  0  0  0  0  0  0  0
   -3.5270    2.4416   -0.7698 Cl  0  0  0  0  0  0  0  0  0  0  0  0
    3.3413    0.8723    2.3668 H   0  0  0  0  0  0  0  0  0  0  0  0
    1.6084    1.1278    2.4605 H   0  0  0  0  0  0  0  0  0  0  0  0
    1.6058    3.8386    0.0808 H   0  0  0  0  0  0  0  0  0  0  0  0
   -0.9580    3.9751   -0.2694 H   0  0  0  0  0  0  0  0  0  0  0  0
    1.8082   -2.7084    0.9476 H   0  0  0  0  0  0  0  0  0  0  0  0
    1.5486   -4.8034   -0.3474 H   0  0  0  0  0  0  0  0  0  0  0  0
    0.6258   -4.7367   -2.6509 H   0  0  0  0  0  0  0  0  0  0  0  0
   -0.0331   -2.5828   -3.6690 H   0  0  0  0  0  0  0  0  0  0  0  0
  1  2  2  0  0  0  0
  1  7  1  0  0  0  0
  1  8  1  0  0  0  0
  2  3  1  0  0  0  0
  2 10  1  0  0  0  0
  3  4  2  0  0  0  0
  3 11  1  0  0  0  0
  4  5  1  0  0  0  0
  5  6  1  0  0  0  0
  5 20  1  0  0  0  0
  5 21  1  0  0  0  0
  6  7  1  0  0  0  0
  6 18  2  0  0  0  0
  7 22  1  0  0  0  0
  8  9  2  0  0  0  0
  8 23  1  0  0  0  0
  9 10  1  0  0  0  0
  9 19  1  0  0  0  0
 11 12  2  0  0  0  0
 11 16  1  0  0  0  0
 12 13  1  0  0  0  0
 12 24  1  0  0  0  0
 13 14  2  0  0  0  0
 13 25  1  0  0  0  0
 14 15  1  0  0  0  0
 14 26  1  0  0  0  0
 15 16  2  0  0  0  0
 15 27  1  0  0  0  0
 16 17  1  0  0  0  0
M  END
