Premazepam
 OpenBabel04201808233D
Structure written by MMmdl.
 34 36  0  0  0  0  0  0  0  0999 V2000
    0.3950    2.2062    0.0530 C   0  0  0  0  0  0  0  0  0  0  0  0
    0.1497    0.8020    0.0459 C   0  0  0  0  0  0  0  0  0  0  0  0
    1.1634   -0.2505    0.1550 C   0  0  0  0  0  0  0  0  0  0  0  0
    2.2117   -0.1399    0.9045 N   0  0  0  0  0  0  0  0  0  0  0  0
    2.3680    1.0381    1.7635 C   0  0  0  0  0  0  0  0  0  0  0  0
    2.6430    2.3114    0.9632 C   0  0  0  0  0  0  0  0  0  0  0  0
    1.5821    2.8617    0.2879 N   0  0  0  0  0  0  0  0  0  0  0  0
   -0.7715    2.8453   -0.2826 C   0  0  0  0  0  0  0  0  0  0  0  0
   -1.7568    1.8989   -0.3724 N   0  0  0  0  0  0  0  0  0  0  0  0
   -1.2261    0.6473   -0.1324 C   0  0  0  0  0  0  0  0  0  0  0  0
    3.7410    2.8782    0.9890 O   0  0  0  0  0  0  0  0  0  0  0  0
    1.0302   -1.4791   -0.6811 C   0  0  0  0  0  0  0  0  0  0  0  0
   -2.0818   -0.5771   -0.1132 C   0  0  0  0  0  0  0  0  0  0  0  0
   -3.1435    2.1931   -0.6761 C   0  0  0  0  0  0  0  0  0  0  0  0
    0.5176   -1.4169   -1.9836 C   0  0  0  0  0  0  0  0  0  0  0  0
    0.4216   -2.5791   -2.7517 C   0  0  0  0  0  0  0  0  0  0  0  0
    0.8464   -3.8003   -2.2282 C   0  0  0  0  0  0  0  0  0  0  0  0
    1.3743   -3.8636   -0.9388 C   0  0  0  0  0  0  0  0  0  0  0  0
    1.4733   -2.7046   -0.1667 C   0  0  0  0  0  0  0  0  0  0  0  0
    3.2306    0.8674    2.4177 H   0  0  0  0  0  0  0  0  0  0  0  0
    1.5057    1.1786    2.4264 H   0  0  0  0  0  0  0  0  0  0  0  0
    1.6781    3.8211   -0.0300 H   0  0  0  0  0  0  0  0  0  0  0  0
   -0.9944    3.8966   -0.4220 H   0  0  0  0  0  0  0  0  0  0  0  0
   -3.0354   -0.3848    0.3888 H   0  0  0  0  0  0  0  0  0  0  0  0
   -1.5978   -1.3920    0.4328 H   0  0  0  0  0  0  0  0  0  0  0  0
   -2.2907   -0.9143   -1.1331 H   0  0  0  0  0  0  0  0  0  0  0  0
   -3.4676    1.5418   -1.4916 H   0  0  0  0  0  0  0  0  0  0  0  0
   -3.2353    3.2379   -0.9838 H   0  0  0  0  0  0  0  0  0  0  0  0
   -3.7353    2.0158    0.2252 H   0  0  0  0  0  0  0  0  0  0  0  0
    0.1964   -0.4705   -2.4134 H   0  0  0  0  0  0  0  0  0  0  0  0
    0.0186   -2.5311   -3.7620 H   0  0  0  0  0  0  0  0  0  0  0  0
    0.7710   -4.7050   -2.8296 H   0  0  0  0  0  0  0  0  0  0  0  0
    1.7116   -4.8167   -0.5349 H   0  0  0  0  0  0  0  0  0  0  0  0
    1.8889   -2.7640    0.8373 H   0  0  0  0  0  0  0  0  0  0  0  0
  1  2  1  0  0  0  0
  1  7  1  0  0  0  0
  1  8  2  0  0  0  0
  2  3  1  0  0  0  0
  2 10  2  0  0  0  0
  3  4  2  0  0  0  0
  3 12  1  0  0  0  0
  4  5  1  0  0  0  0
  5  6  1  0  0  0  0
  5 20  1  0  0  0  0
  5 21  1  0  0  0  0
  6  7  1  0  0  0  0
  6 11  2  0  0  0  0
  7 22  1  0  0  0  0
  8  9  1  0  0  0  0
  8 23  1  0  0  0  0
  9 10  1  0  0  0  0
  9 14  1  0  0  0  0
 10 13  1  0  0  0  0
 12 15  2  0  0  0  0
 12 19  1  0  0  0  0
 13 24  1  0  0  0  0
 13 25  1  0  0  0  0
 13 26  1  0  0  0  0
 14 27  1  0  0  0  0
 14 28  1  0  0  0  0
 14 29  1  0  0  0  0
 15 16  1  0  0  0  0
 15 30  1  0  0  0  0
 16 17  2  0  0  0  0
 16 31  1  0  0  0  0
 17 18  1  0  0  0  0
 17 32  1  0  0  0  0
 18 19  2  0  0  0  0
 18 33  1  0  0  0  0
 19 34  1  0  0  0  0
M  END
